xflr5 v6.49

 Calculated polar for: Aerofoil62

 1 1 Reynolds number fixed          Mach number fixed         

 xtrf =   1.000 (top)        1.000 (bottom)
 Mach =   0.000     Re =     0.500 e 6     Ncrit =   5.000

  alpha     CL        CD       CDp       Cm    Top Xtr Bot Xtr   Cpmin    Chinge    XCp    
 ------- -------- --------- --------- -------- ------- ------- -------- --------- ---------
 -20.000  -0.4892   0.15693   0.15446   0.0336  1.0000  0.0108  -3.2352   0.0000   0.2888
 -19.000  -0.7488   0.08172   0.07866   0.0184  1.0000  0.0124  -8.0458   0.0000   0.2561
 -18.000  -0.8202   0.05744   0.05384   0.0119  1.0000  0.0126  -8.6068   0.0000   0.2496
 -17.000  -0.8529   0.04311   0.03906   0.0099  1.0000  0.0131  -8.5519   0.0000   0.2491
 -16.000  -0.8639   0.03416   0.02970   0.0117  1.0000  0.0139  -8.2070   0.0000   0.2528
 -15.000  -0.8591   0.02843   0.02361   0.0157  1.0000  0.0149  -7.6858   0.0000   0.2589
 -14.000  -0.8536   0.02414   0.01900   0.0230  1.0000  0.0159  -7.1503   0.0000   0.2686
 -13.000  -0.8295   0.02071   0.01534   0.0280  0.9978  0.0177  -6.5005   0.0000   0.2762
 -12.000  -0.7509   0.01805   0.01241   0.0212  0.9843  0.0203  -5.5564   0.0000   0.2712
 -11.000  -0.6805   0.01576   0.00991   0.0177  0.9595  0.0237  -4.7950   0.0000   0.2694
 -10.000  -0.5804   0.01385   0.00785   0.0072  0.9436  0.0302  -3.9500   0.0000   0.2557
  -9.000  -0.4777   0.01215   0.00603  -0.0036  0.9184  0.0401  -3.1528   0.0000   0.2354
  -7.000  -0.3342   0.01021   0.00391  -0.0073  0.8391  0.0879  -2.0188   0.0000   0.2206
  -6.000  -0.2641   0.00936   0.00315  -0.0086  0.8044  0.1551  -1.5486   0.0000   0.2094
  -5.000  -0.1968   0.00831   0.00252  -0.0093  0.7716  0.2987  -1.1739   0.0000   0.1935
  -3.000  -0.0565   0.00676   0.00185  -0.0114  0.7087  0.6410  -0.6041   0.0000   0.0269
  -2.000   0.0287   0.00659   0.00183  -0.0163  0.6775  0.7319  -0.4883   0.0000   0.8423
  -1.000   0.1181   0.00663   0.00187  -0.0223  0.6455  0.7881  -0.5587   0.0000   0.4417
   0.000   0.2096   0.00677   0.00200  -0.0291  0.6121  0.8281  -0.6393   0.0000   0.3877
   1.000   0.3008   0.00697   0.00221  -0.0359  0.5758  0.8616  -0.7339   0.0000   0.3664
   2.000   0.3903   0.00733   0.00253  -0.0423  0.5334  0.8916  -0.8629   0.0000   0.3543
   3.000   0.4890   0.00790   0.00305  -0.0516  0.4747  0.9145  -1.1349   0.0000   0.3502
   4.000   0.5738   0.00885   0.00373  -0.0574  0.3826  0.9358  -1.5035   0.0000   0.3437
   5.000   0.6583   0.01050   0.00496  -0.0640  0.2552  0.9521  -1.9634   0.0000   0.3398
   6.000   0.7181   0.01246   0.00646  -0.0646  0.1356  0.9747  -2.4173   0.0000   0.3314
   7.000   0.7934   0.01447   0.00821  -0.0703  0.0703  0.9931  -3.0176   0.0000   0.3288
   8.000   0.8607   0.01654   0.01025  -0.0743  0.0442  1.0000  -3.6361   0.0000   0.3253
   9.000   0.8797   0.01864   0.01243  -0.0662  0.0346  1.0000  -4.0901   0.0000   0.3129
  10.000   0.9059   0.02154   0.01544  -0.0615  0.0273  1.0000  -4.6350   0.0000   0.3041
  11.000   0.9347   0.02506   0.01918  -0.0589  0.0233  1.0000  -5.2332   0.0000   0.2976
  12.000   0.9531   0.03000   0.02432  -0.0562  0.0202  1.0000  -5.7785   0.0000   0.2920
  13.000   0.9722   0.03561   0.03021  -0.0552  0.0180  1.0000  -6.3389   0.0000   0.2880
  14.000   0.9826   0.04277   0.03759  -0.0547  0.0157  1.0000  -6.8516   0.0000   0.2850
  15.000   0.9797   0.05226   0.04740  -0.0546  0.0145  1.0000  -7.2409   0.0000   0.2831
  16.000   0.9761   0.06282   0.05831  -0.0559  0.0136  1.0000  -7.6078   0.0000   0.2826
  17.000   0.9621   0.07574   0.07159  -0.0582  0.0127  1.0000  -7.8556   0.0000   0.2835
  18.000   0.9393   0.09095   0.08716  -0.0614  0.0120  1.0000  -7.9770   0.0000   0.2861
  19.000   0.9084   0.10855   0.10512  -0.0659  0.0115  1.0000  -7.9410   0.0000   0.2909
  20.000   0.8715   0.12838   0.12531  -0.0720  0.0111  1.0000  -7.7120   0.0000   0.2985


