xflr5 v6.49

 Calculated polar for: Aerofoil83

 1 1 Reynolds number fixed          Mach number fixed         

 xtrf =   1.000 (top)        1.000 (bottom)
 Mach =   0.000     Re =     0.500 e 6     Ncrit =   5.000

  alpha     CL        CD       CDp       Cm    Top Xtr Bot Xtr   Cpmin    Chinge    XCp    
 ------- -------- --------- --------- -------- ------- ------- -------- --------- ---------
 -20.000  -0.7295   0.07597   0.07222  -0.0126  0.9963  0.0236  -6.5881   0.0000   0.2059
 -19.000  -0.7496   0.05915   0.05507  -0.0216  0.9915  0.0249  -6.5751   0.0000   0.1975
 -18.000  -0.7481   0.04663   0.04220  -0.0295  0.9839  0.0268  -6.3557   0.0000   0.1893
 -17.000  -0.7247   0.03729   0.03251  -0.0377  0.9744  0.0286  -5.9802   0.0000   0.1785
 -16.000  -0.7217   0.02959   0.02455  -0.0376  0.9592  0.0309  -5.6691   0.0000   0.1804
 -15.000  -0.6788   0.02422   0.01894  -0.0428  0.9492  0.0344  -5.1563   0.0000   0.1704
 -14.000  -0.6311   0.02056   0.01503  -0.0457  0.9355  0.0379  -4.6375   0.0000   0.1617
 -13.000  -0.5634   0.01758   0.01189  -0.0517  0.9216  0.0450  -4.0980   0.0000   0.1423
 -12.000  -0.4852   0.01536   0.00952  -0.0590  0.9072  0.0537  -3.5440   0.0000   0.1119
 -11.000  -0.3958   0.01359   0.00761  -0.0680  0.8913  0.0670  -2.9791   0.0000   0.0601
 -10.000  -0.3430   0.01240   0.00631  -0.0663  0.8689  0.0820  -2.5781   0.0000   0.0379
  -9.000  -0.2910   0.01142   0.00530  -0.0637  0.8479  0.1055  -2.2079   0.0000   0.0113
  -8.000  -0.2331   0.01061   0.00447  -0.0622  0.8288  0.1378  -1.8524   0.0000  -0.0389
  -7.000  -0.1818   0.00998   0.00389  -0.0586  0.8086  0.1815  -1.5534   0.0000  -0.0970
  -6.000  -0.1212   0.00938   0.00343  -0.0574  0.7898  0.2425  -1.2731   0.0000  -0.2554
  -5.000  -0.0515   0.00881   0.00302  -0.0586  0.7717  0.3195  -1.0176   0.0000  -0.9500
  -4.000   0.0211   0.00832   0.00271  -0.0605  0.7520  0.4049  -0.8002   0.0000   3.2401
  -3.000   0.0899   0.00795   0.00256  -0.0612  0.7322  0.4895  -0.6292   0.0000   0.9526
  -2.000   0.1616   0.00768   0.00247  -0.0627  0.7118  0.5697  -0.6566   0.0000   0.6457
  -1.000   0.2323   0.00751   0.00245  -0.0638  0.6898  0.6450  -0.7097   0.0000   0.5268
   0.000   0.2926   0.00741   0.00249  -0.0620  0.6654  0.7139  -0.7634   0.0000   0.4608
   1.000   0.3554   0.00747   0.00270  -0.0610  0.6388  0.7808  -0.8266   0.0000   0.4182
   2.000   0.4208   0.00770   0.00310  -0.0609  0.6090  0.8473  -0.9055   0.0000   0.3894
   3.000   0.5180   0.00833   0.00381  -0.0701  0.5700  0.9021  -1.0422   0.0000   0.3786
   5.000   0.7022   0.01090   0.00608  -0.0875  0.4394  0.9605  -1.5199   0.0000   0.3653
   6.000   0.7634   0.01308   0.00793  -0.0896  0.3494  0.9922  -1.8018   0.0000   0.3567
   7.000   0.8191   0.01594   0.01040  -0.0916  0.2518  1.0000  -2.1101   0.0000   0.3496
   8.000   0.8350   0.01861   0.01280  -0.0832  0.1844  1.0000  -2.3720   0.0000   0.3359
   9.000   0.8610   0.02172   0.01573  -0.0783  0.1329  1.0000  -2.6652   0.0000   0.3256
  10.000   0.8924   0.02510   0.01901  -0.0755  0.0992  1.0000  -3.0151   0.0000   0.3177
  11.000   0.9244   0.02889   0.02279  -0.0737  0.0751  1.0000  -3.3809   0.0000   0.3112
  12.000   0.9570   0.03302   0.02698  -0.0728  0.0610  1.0000  -3.7581   0.0000   0.3059
  13.000   0.9844   0.03794   0.03201  -0.0720  0.0499  1.0000  -4.1615   0.0000   0.3013
  14.000   1.0069   0.04364   0.03784  -0.0714  0.0424  1.0000  -4.5630   0.0000   0.2972
  15.000   1.0261   0.05012   0.04448  -0.0714  0.0370  1.0000  -4.9554   0.0000   0.2939
  16.000   1.0376   0.05782   0.05242  -0.0715  0.0331  1.0000  -5.3129   0.0000   0.2912
  17.000   1.0435   0.06664   0.06145  -0.0721  0.0292  1.0000  -5.6435   0.0000   0.2893
  18.000   1.0386   0.07732   0.07239  -0.0729  0.0267  1.0000  -5.9021   0.0000   0.2882
  19.000   1.0343   0.08842   0.08380  -0.0748  0.0249  1.0000  -6.1773   0.0000   0.2881
  20.000   1.0215   0.10111   0.09677  -0.0774  0.0231  1.0000  -6.3940   0.0000   0.2891


