xflr5 v6.49

 Calculated polar for: Aerofoil50

 1 1 Reynolds number fixed          Mach number fixed         

 xtrf =   1.000 (top)        1.000 (bottom)
 Mach =   0.000     Re =     0.500 e 6     Ncrit =   5.000

  alpha     CL        CD       CDp       Cm    Top Xtr Bot Xtr   Cpmin    Chinge    XCp    
 ------- -------- --------- --------- -------- ------- ------- -------- --------- ---------
 -20.000  -0.7744   0.06981   0.06599   0.0051  1.0000  0.0220  -6.8389   0.0000   0.2384
 -19.000  -0.8183   0.05287   0.04871   0.0011  1.0000  0.0231  -6.9656   0.0000   0.2360
 -18.000  -0.8433   0.04015   0.03567  -0.0011  1.0000  0.0243  -6.8729   0.0000   0.2357
 -17.000  -0.8468   0.03169   0.02696  -0.0012  1.0000  0.0261  -6.5832   0.0000   0.2373
 -16.000  -0.8384   0.02602   0.02103   0.0012  1.0000  0.0280  -6.1974   0.0000   0.2414
 -15.000  -0.7888   0.02131   0.01605  -0.0035  0.9653  0.0305  -5.6254   0.0000   0.2363
 -14.000  -0.6898   0.01778   0.01226  -0.0175  0.9155  0.0354  -4.8494   0.0000   0.2153
 -13.000  -0.6570   0.01594   0.01004  -0.0120  0.8590  0.0393  -4.3873   0.0000   0.2228
 -12.000  -0.6187   0.01454   0.00844  -0.0065  0.8239  0.0456  -3.9335   0.0000   0.2308
 -11.000  -0.5749   0.01344   0.00714  -0.0015  0.7957  0.0530  -3.4784   0.0000   0.2390
 -10.000  -0.5103   0.01247   0.00604  -0.0013  0.7714  0.0649  -2.9754   0.0000   0.2387
  -9.000  -0.4353   0.01161   0.00506  -0.0037  0.7480  0.0820  -2.4993   0.0000   0.2323
  -8.000  -0.3552   0.01078   0.00422  -0.0073  0.7254  0.1108  -2.0589   0.0000   0.2190
  -7.000  -0.2711   0.01001   0.00355  -0.0121  0.7040  0.1557  -1.6591   0.0000   0.1932
  -6.000  -0.1849   0.00930   0.00298  -0.0174  0.6830  0.2216  -1.3074   0.0000   0.1399
  -5.000  -0.0975   0.00865   0.00255  -0.0231  0.6614  0.3131  -1.0115   0.0000  -0.0132
  -4.000  -0.0091   0.00813   0.00227  -0.0290  0.6387  0.4180  -0.7666   0.0000  -3.1966
  -3.000   0.0810   0.00776   0.00213  -0.0354  0.6158  0.5229  -0.6431   0.0000   0.7073
  -2.000   0.1722   0.00753   0.00212  -0.0420  0.5924  0.6160  -0.7194   0.0000   0.5001
  -1.000   0.2638   0.00746   0.00222  -0.0488  0.5679  0.6953  -0.8029   0.0000   0.4361
   0.000   0.3551   0.00751   0.00241  -0.0555  0.5420  0.7647  -0.8961   0.0000   0.4048
   1.000   0.4449   0.00768   0.00269  -0.0619  0.5139  0.8266  -1.0006   0.0000   0.3856
   2.000   0.5339   0.00802   0.00309  -0.0682  0.4824  0.8841  -1.1250   0.0000   0.3726
   3.000   0.6292   0.00854   0.00365  -0.0766  0.4459  0.9300  -1.3005   0.0000   0.3650
   4.000   0.7436   0.00947   0.00449  -0.0908  0.3937  0.9532  -1.5898   0.0000   0.3639
   5.000   0.8293   0.01071   0.00552  -0.0978  0.3312  0.9838  -1.9159   0.0000   0.3584
   6.000   0.8996   0.01242   0.00701  -0.1020  0.2596  1.0000  -2.2711   0.0000   0.3523
   7.000   0.9053   0.01454   0.00894  -0.0905  0.2053  1.0000  -2.5182   0.0000   0.3372
   8.000   0.9239   0.01760   0.01184  -0.0840  0.1533  1.0000  -2.8018   0.0000   0.3265
   9.000   0.9457   0.02134   0.01547  -0.0800  0.1136  1.0000  -3.1336   0.0000   0.3184
  10.000   0.9683   0.02572   0.01982  -0.0775  0.0849  1.0000  -3.4742   0.0000   0.3120
  11.000   0.9924   0.03057   0.02474  -0.0763  0.0674  1.0000  -3.8255   0.0000   0.3070
  12.000   1.0110   0.03646   0.03071  -0.0756  0.0541  1.0000  -4.1980   0.0000   0.3030
  13.000   1.0271   0.04315   0.03755  -0.0757  0.0454  1.0000  -4.5704   0.0000   0.2998
  14.000   1.0394   0.05074   0.04533  -0.0762  0.0395  1.0000  -4.9269   0.0000   0.2974
  15.000   1.0412   0.06004   0.05481  -0.0768  0.0344  1.0000  -5.2294   0.0000   0.2957
  16.000   1.0446   0.06964   0.06467  -0.0783  0.0308  1.0000  -5.5365   0.0000   0.2947
  17.000   1.0345   0.08149   0.07672  -0.0798  0.0275  1.0000  -5.7571   0.0000   0.2947
  18.000   1.0249   0.09369   0.08922  -0.0821  0.0256  1.0000  -5.9846   0.0000   0.2953
  19.000   1.0143   0.10634   0.10214  -0.0852  0.0237  1.0000  -6.2025   0.0000   0.2969
  20.000   0.9988   0.12014   0.11617  -0.0892  0.0219  1.0000  -6.3559   0.0000   0.2997


