xflr5 v6.49

 Calculated polar for: Aerofoil68

 1 1 Reynolds number fixed          Mach number fixed         

 xtrf =   1.000 (top)        1.000 (bottom)
 Mach =   0.000     Re =     0.500 e 6     Ncrit =   5.000

  alpha     CL        CD       CDp       Cm    Top Xtr Bot Xtr   Cpmin    Chinge    XCp    
 ------- -------- --------- --------- -------- ------- ------- -------- --------- ---------
 -20.000  -0.3904   0.16641   0.16393   0.0132  1.0000  0.0103  -2.5879   0.0000   0.2444
 -19.000  -0.3751   0.15714   0.15471   0.0088  1.0000  0.0112  -2.5401   0.0000   0.2361
 -18.000  -0.3633   0.14728   0.14487   0.0052  1.0000  0.0121  -2.5367   0.0000   0.2293
 -17.000  -0.5857   0.08020   0.07737  -0.0064  0.9992  0.0155  -6.7984   0.0000   0.2188
 -16.000  -0.6607   0.05178   0.04844  -0.0202  0.9940  0.0157  -7.6520   0.0000   0.2037
 -15.000  -0.6876   0.03263   0.02875  -0.0347  0.9805  0.0164  -7.7776   0.0000   0.1869
 -14.000  -0.6804   0.02372   0.01939  -0.0402  0.9598  0.0175  -7.3632   0.0000   0.1801
 -13.000  -0.6251   0.01961   0.01489  -0.0448  0.9457  0.0193  -6.6303   0.0000   0.1681
 -12.000  -0.5569   0.01695   0.01185  -0.0485  0.9263  0.0214  -5.8506   0.0000   0.1527
 -11.000  -0.4707   0.01462   0.00926  -0.0560  0.9087  0.0257  -5.0070   0.0000   0.1204
 -10.000  -0.3823   0.01290   0.00725  -0.0630  0.8878  0.0305  -4.1989   0.0000   0.0735
  -9.000  -0.2976   0.01169   0.00582  -0.0684  0.8643  0.0374  -3.4447   0.0000   0.0067
  -8.000  -0.2114   0.01064   0.00466  -0.0741  0.8412  0.0499  -2.8028   0.0000  -0.1174
  -7.000  -0.1217   0.00983   0.00375  -0.0806  0.8183  0.0700  -2.2099   0.0000  -0.4384
  -6.000  -0.0305   0.00913   0.00303  -0.0875  0.7955  0.1057  -1.6835   0.0000  -2.7142
  -5.000   0.0614   0.00853   0.00249  -0.0946  0.7722  0.1647  -1.2373   0.0000   1.8296
  -4.000   0.1536   0.00805   0.00214  -0.1018  0.7482  0.2480  -0.8785   0.0000   0.9257
  -3.000   0.2455   0.00769   0.00194  -0.1089  0.7237  0.3450  -0.6370   0.0000   0.6997
  -2.000   0.3368   0.00745   0.00190  -0.1158  0.6991  0.4446  -0.7004   0.0000   0.5966
  -1.000   0.4270   0.00732   0.00196  -0.1224  0.6737  0.5455  -0.7686   0.0000   0.5373
   0.000   0.5149   0.00728   0.00213  -0.1284  0.6471  0.6478  -0.8413   0.0000   0.4982
   1.000   0.5980   0.00726   0.00240  -0.1329  0.6190  0.7644  -0.9197   0.0000   0.4698
   2.000   0.6957   0.00738   0.00282  -0.1414  0.5875  0.9442  -1.0214   0.0000   0.4495
   3.000   0.8018   0.00790   0.00330  -0.1529  0.5481  1.0000  -1.2311   0.0000   0.4357
   4.000   0.8392   0.00855   0.00375  -0.1453  0.4887  1.0000  -1.4791   0.0000   0.4170
   5.000   0.8734   0.00966   0.00460  -0.1377  0.4107  1.0000  -1.7744   0.0000   0.4002
   6.000   0.8994   0.01142   0.00599  -0.1289  0.3143  1.0000  -2.0966   0.0000   0.3847
   7.000   0.9169   0.01403   0.00815  -0.1196  0.2024  1.0000  -2.4211   0.0000   0.3704
   8.000   0.9368   0.01716   0.01091  -0.1122  0.1156  1.0000  -2.7917   0.0000   0.3585
   9.000   0.9657   0.02039   0.01402  -0.1079  0.0711  1.0000  -3.2294   0.0000   0.3490
  10.000   0.9988   0.02383   0.01748  -0.1054  0.0493  1.0000  -3.6998   0.0000   0.3414
  11.000   1.0293   0.02793   0.02167  -0.1035  0.0367  1.0000  -4.1865   0.0000   0.3349
  12.000   1.0574   0.03262   0.02649  -0.1022  0.0291  1.0000  -4.7361   0.0000   0.3294
  13.000   1.0806   0.03820   0.03231  -0.1011  0.0247  1.0000  -5.2722   0.0000   0.3247
  14.000   1.0936   0.04506   0.03936  -0.0997  0.0210  1.0000  -5.7611   0.0000   0.3205
  15.000   1.1048   0.05253   0.04711  -0.0990  0.0187  1.0000  -6.2468   0.0000   0.3171
  16.000   1.1082   0.06125   0.05609  -0.0985  0.0165  1.0000  -6.6882   0.0000   0.3145
  17.000   1.0954   0.07273   0.06786  -0.0981  0.0148  1.0000  -6.9867   0.0000   0.3132
  18.000   1.0897   0.08434   0.07980  -0.0998  0.0141  1.0000  -7.3200   0.0000   0.3132
  19.000   1.0786   0.09762   0.09345  -0.1030  0.0132  1.0000  -7.5745   0.0000   0.3149
  20.000   1.0633   0.11224   0.10841  -0.1075  0.0123  1.0000  -7.7773   0.0000   0.3183


