xflr5 v6.49

 Calculated polar for: Aerofoil21

 1 1 Reynolds number fixed          Mach number fixed         

 xtrf =   1.000 (top)        1.000 (bottom)
 Mach =   0.000     Re =     0.500 e 6     Ncrit =   5.000

  alpha     CL        CD       CDp       Cm    Top Xtr Bot Xtr   Cpmin    Chinge    XCp    
 ------- -------- --------- --------- -------- ------- ------- -------- --------- ---------
 -20.000  -0.3192   0.14741   0.14512   0.0090  1.0000  0.0109  -2.0363   0.0000   0.2526
 -19.000  -0.3088   0.14126   0.13896   0.0055  1.0000  0.0119  -1.9875   0.0000   0.2430
 -18.000  -0.3124   0.13374   0.13144   0.0027  1.0000  0.0129  -2.1993   0.0000   0.2352
 -17.000  -0.7444   0.05527   0.05211   0.0019  1.0000  0.0146  -8.1985   0.0000   0.2411
 -16.000  -0.8174   0.03551   0.03179  -0.0014  1.0000  0.0147  -8.6279   0.0000   0.2400
 -15.000  -0.8567   0.02804   0.02388   0.0083  0.9999  0.0152  -8.4565   0.0000   0.2531
 -14.000  -0.8220   0.02291   0.01821   0.0081  0.9891  0.0162  -7.7500   0.0000   0.2540
 -13.000  -0.7558   0.01957   0.01454   0.0043  0.9740  0.0182  -6.8157   0.0000   0.2502
 -12.000  -0.6898   0.01714   0.01180   0.0029  0.9559  0.0205  -5.9966   0.0000   0.2491
 -11.000  -0.5933   0.01479   0.00918  -0.0061  0.9460  0.0241  -5.0924   0.0000   0.2345
 -10.000  -0.5062   0.01328   0.00747  -0.0118  0.9272  0.0288  -4.2617   0.0000   0.2211
  -9.000  -0.4010   0.01172   0.00576  -0.0224  0.9108  0.0366  -3.4163   0.0000   0.1877
  -8.000  -0.3031   0.01055   0.00448  -0.0308  0.8855  0.0498  -2.7066   0.0000   0.1406
  -7.000  -0.2129   0.00970   0.00357  -0.0370  0.8539  0.0710  -2.1151   0.0000   0.0661
  -6.000  -0.1245   0.00902   0.00286  -0.0427  0.8194  0.1082  -1.5964   0.0000  -0.1088
  -5.000  -0.0373   0.00841   0.00233  -0.0482  0.7832  0.1736  -1.1659   0.0000  -1.0892
  -4.000   0.0482   0.00786   0.00197  -0.0532  0.7466  0.2793  -0.8241   0.0000   1.3860
  -2.000   0.2056   0.00668   0.00169  -0.0598  0.6698  0.6579  -0.5905   0.0000   0.5442
  -1.000   0.2947   0.00644   0.00193  -0.0653  0.6305  0.8625  -0.6734   0.0000   0.4724
   0.000   0.4176   0.00696   0.00233  -0.0807  0.5854  0.9296  -0.7919   0.0000   0.4420
   1.000   0.5416   0.00764   0.00285  -0.0966  0.5341  0.9528  -0.9410   0.0000   0.4258
   2.000   0.6451   0.00831   0.00337  -0.1072  0.4759  0.9741  -1.1509   0.0000   0.4122
   3.000   0.7491   0.00914   0.00392  -0.1185  0.3950  0.9907  -1.4979   0.0000   0.4029
   4.000   0.8398   0.01039   0.00479  -0.1265  0.2926  0.9999  -1.9295   0.0000   0.3941
   5.000   0.8626   0.01156   0.00566  -0.1160  0.2117  1.0000  -2.2693   0.0000   0.3766
   6.000   0.8891   0.01308   0.00690  -0.1071  0.1379  1.0000  -2.6420   0.0000   0.3613
   7.000   0.9223   0.01496   0.00859  -0.1008  0.0865  1.0000  -3.1013   0.0000   0.3489
   8.000   0.9600   0.01709   0.01069  -0.0967  0.0565  1.0000  -3.6091   0.0000   0.3389
   9.000   0.9968   0.01964   0.01331  -0.0935  0.0416  1.0000  -4.1328   0.0000   0.3304
  10.000   1.0301   0.02282   0.01663  -0.0908  0.0318  1.0000  -4.6962   0.0000   0.3232
  11.000   1.0567   0.02694   0.02093  -0.0883  0.0261  1.0000  -5.2801   0.0000   0.3170
  12.000   1.0781   0.03208   0.02630  -0.0864  0.0223  1.0000  -5.8487   0.0000   0.3118
  13.000   1.0885   0.03889   0.03338  -0.0847  0.0196  1.0000  -6.3506   0.0000   0.3076
  14.000   1.0970   0.04676   0.04155  -0.0845  0.0173  1.0000  -6.8468   0.0000   0.3049
  15.000   1.0916   0.05709   0.05218  -0.0846  0.0155  1.0000  -7.2342   0.0000   0.3033
  16.000   1.0724   0.07024   0.06567  -0.0854  0.0144  1.0000  -7.4746   0.0000   0.3033
  17.000   1.0544   0.08421   0.08002  -0.0876  0.0137  1.0000  -7.6931   0.0000   0.3046
  18.000   1.0295   0.10004   0.09622  -0.0908  0.0129  1.0000  -7.8003   0.0000   0.3075
  19.000   1.0008   0.11729   0.11383  -0.0953  0.0122  1.0000  -7.7972   0.0000   0.3122
  20.000   0.9712   0.13554   0.13241  -0.1014  0.0116  1.0000  -7.7049   0.0000   0.3191


