xflr5 v6.49

 Calculated polar for: Aerofoil69

 1 1 Reynolds number fixed          Mach number fixed         

 xtrf =   1.000 (top)        1.000 (bottom)
 Mach =   0.000     Re =     0.500 e 6     Ncrit =   5.000

  alpha     CL        CD       CDp       Cm    Top Xtr Bot Xtr   Cpmin    Chinge    XCp    
 ------- -------- --------- --------- -------- ------- ------- -------- --------- ---------
 -20.000  -0.3539   0.17293   0.17045  -0.0035  0.9952  0.0094  -2.2357   0.0000   0.1903
 -19.000  -0.3285   0.15855   0.15606  -0.0146  0.9915  0.0106  -2.5571   0.0000   0.1567
 -18.000  -0.2947   0.14705   0.14455  -0.0259  0.9862  0.0116  -2.4669   0.0000   0.1127
 -17.000  -0.4963   0.08398   0.08110  -0.0354  0.9817  0.0150  -6.5246   0.0000   0.1480
 -16.000  -0.5753   0.05559   0.05218  -0.0471  0.9749  0.0151  -7.4228   0.0000   0.1435
 -15.000  -0.6316   0.03762   0.03372  -0.0510  0.9607  0.0155  -7.7065   0.0000   0.1491
 -14.000  -0.6307   0.02700   0.02262  -0.0572  0.9497  0.0166  -7.3717   0.0000   0.1417
 -13.000  -0.6038   0.02209   0.01734  -0.0582  0.9366  0.0180  -6.7706   0.0000   0.1376
 -12.000  -0.5482   0.01875   0.01361  -0.0617  0.9234  0.0200  -6.0610   0.0000   0.1220
 -11.000  -0.4816   0.01612   0.01066  -0.0660  0.9107  0.0228  -5.3149   0.0000   0.0978
 -10.000  -0.4166   0.01445   0.00874  -0.0679  0.8943  0.0270  -4.5803   0.0000   0.0718
  -9.000  -0.3690   0.01319   0.00728  -0.0643  0.8756  0.0314  -3.9631   0.0000   0.0608
  -8.000  -0.2907   0.01203   0.00590  -0.0686  0.8615  0.0393  -3.2479   0.0000  -0.0021
  -7.000  -0.2263   0.01120   0.00499  -0.0688  0.8453  0.0511  -2.6977   0.0000  -0.0715
  -6.000  -0.1444   0.01038   0.00412  -0.0736  0.8310  0.0726  -2.1348   0.0000  -0.2824
  -5.000  -0.0684   0.00972   0.00348  -0.0767  0.8153  0.1085  -1.6522   0.0000  -0.9100
  -4.000   0.0134   0.00907   0.00297  -0.0814  0.8010  0.1731  -1.2303   0.0000   6.5023
  -3.000   0.0927   0.00844   0.00259  -0.0854  0.7846  0.2704  -0.8894   0.0000   1.1882
  -2.000   0.1684   0.00791   0.00238  -0.0884  0.7685  0.3961  -0.6250   0.0000   0.7805
  -1.000   0.2495   0.00739   0.00222  -0.0927  0.7513  0.5483  -0.6555   0.0000   0.6230
   0.000   0.3110   0.00696   0.00227  -0.0912  0.7326  0.7063  -0.6946   0.0000   0.5426
   1.000   0.3910   0.00682   0.00253  -0.0947  0.7140  0.8590  -0.7480   0.0000   0.4899
   2.000   0.5461   0.00733   0.00307  -0.1196  0.6944  0.9204  -0.8499   0.0000   0.4657
   3.000   0.6535   0.00783   0.00354  -0.1311  0.6689  0.9486  -0.9374   0.0000   0.4464
   4.000   0.7392   0.00832   0.00405  -0.1367  0.6334  0.9767  -1.1451   0.0000   0.4298
   5.000   0.8192   0.00926   0.00474  -0.1415  0.5455  0.9973  -1.4808   0.0000   0.4165
   6.000   0.8344   0.01075   0.00586  -0.1293  0.4477  1.0000  -1.7382   0.0000   0.3977
   7.000   0.8299   0.01332   0.00791  -0.1133  0.3208  1.0000  -1.9887   0.0000   0.3782
   8.000   0.8396   0.01663   0.01066  -0.1027  0.1869  1.0000  -2.2830   0.0000   0.3628
   9.000   0.8665   0.01983   0.01351  -0.0971  0.1034  1.0000  -2.6763   0.0000   0.3513
  10.000   0.9025   0.02291   0.01647  -0.0940  0.0635  1.0000  -3.1337   0.0000   0.3424
  11.000   0.9409   0.02615   0.01972  -0.0921  0.0447  1.0000  -3.6198   0.0000   0.3349
  12.000   0.9783   0.02975   0.02343  -0.0907  0.0337  1.0000  -4.1632   0.0000   0.3284
  13.000   1.0104   0.03401   0.02782  -0.0891  0.0272  1.0000  -4.7334   0.0000   0.3226
  14.000   1.0394   0.03887   0.03288  -0.0879  0.0229  1.0000  -5.3077   0.0000   0.3175
  15.000   1.0613   0.04469   0.03892  -0.0865  0.0198  1.0000  -5.8544   0.0000   0.3129
  16.000   1.0806   0.05123   0.04570  -0.0858  0.0171  1.0000  -6.4055   0.0000   0.3092
  17.000   1.0831   0.06002   0.05476  -0.0844  0.0152  1.0000  -6.8360   0.0000   0.3059
  18.000   1.0875   0.06931   0.06439  -0.0845  0.0142  1.0000  -7.2770   0.0000   0.3039
  19.000   1.0822   0.08039   0.07583  -0.0851  0.0132  1.0000  -7.6330   0.0000   0.3028
  20.000   1.0689   0.09327   0.08907  -0.0868  0.0123  1.0000  -7.9610   0.0000   0.3033


