xflr5 v6.49

 Calculated polar for: Aerofoil49

 1 1 Reynolds number fixed          Mach number fixed         

 xtrf =   1.000 (top)        1.000 (bottom)
 Mach =   0.000     Re =     0.500 e 6     Ncrit =   5.000

  alpha     CL        CD       CDp       Cm    Top Xtr Bot Xtr   Cpmin    Chinge    XCp    
 ------- -------- --------- --------- -------- ------- ------- -------- --------- ---------
 -20.000  -0.5596   0.10649   0.10360   0.0018  1.0000  0.0248  -5.3419   0.0000   0.2254
 -19.000  -0.6398   0.08026   0.07698  -0.0055  1.0000  0.0261  -6.0670   0.0000   0.2190
 -18.000  -0.6867   0.06218   0.05860  -0.0106  1.0000  0.0272  -6.3186   0.0000   0.2157
 -17.000  -0.7278   0.04734   0.04346  -0.0137  1.0000  0.0281  -6.4236   0.0000   0.2155
 -16.000  -0.7449   0.03526   0.03106  -0.0184  0.9973  0.0290  -6.3211   0.0000   0.2118
 -15.000  -0.7170   0.02453   0.01999  -0.0317  0.9601  0.0316  -5.9641   0.0000   0.1937
 -14.000  -0.6709   0.01887   0.01395  -0.0396  0.9076  0.0347  -5.4802   0.0000   0.1796
 -13.000  -0.6473   0.01685   0.01150  -0.0334  0.8629  0.0373  -5.0604   0.0000   0.1879
 -12.000  -0.5843   0.01495   0.00938  -0.0349  0.8344  0.0432  -4.4985   0.0000   0.1798
 -11.000  -0.5035   0.01349   0.00769  -0.0397  0.8099  0.0496  -3.8936   0.0000   0.1602
 -10.000  -0.4146   0.01229   0.00634  -0.0461  0.7876  0.0597  -3.2960   0.0000   0.1267
  -9.000  -0.3212   0.01127   0.00520  -0.0535  0.7663  0.0733  -2.7715   0.0000   0.0694
  -8.000  -0.2248   0.01046   0.00429  -0.0614  0.7449  0.0934  -2.2679   0.0000  -0.0416
  -7.000  -0.1266   0.00975   0.00354  -0.0698  0.7224  0.1222  -1.8330   0.0000  -0.3306
  -6.000  -0.0268   0.00915   0.00298  -0.0786  0.7005  0.1612  -1.4437   0.0000  -2.8114
  -5.000   0.0739   0.00869   0.00257  -0.0877  0.6783  0.2113  -1.1131   0.0000   1.4755
  -4.000   0.1747   0.00834   0.00232  -0.0968  0.6555  0.2713  -0.8387   0.0000   0.8172
  -3.000   0.2756   0.00813   0.00218  -0.1060  0.6317  0.3351  -0.7437   0.0000   0.6406
  -2.000   0.3759   0.00804   0.00218  -0.1150  0.6066  0.4019  -0.8286   0.0000   0.5584
   0.000   0.5736   0.00817   0.00250  -0.1325  0.5523  0.5304  -1.0236   0.0000   0.4792
   1.000   0.6696   0.00838   0.00282  -0.1406  0.5217  0.5935  -1.1393   0.0000   0.4566
   2.000   0.7620   0.00872   0.00324  -0.1479  0.4874  0.6570  -1.2742   0.0000   0.4392
   3.000   0.8495   0.00917   0.00379  -0.1540  0.4496  0.7252  -1.4435   0.0000   0.4249
   4.000   0.9257   0.00975   0.00449  -0.1572  0.4043  0.8105  -1.6613   0.0000   0.4121
   5.000   0.9869   0.01045   0.00528  -0.1568  0.3530  1.0000  -1.9153   0.0000   0.3997
   6.000   1.0263   0.01184   0.00650  -0.1517  0.2987  1.0000  -2.1749   0.0000   0.3872
   7.000   1.0585   0.01389   0.00835  -0.1462  0.2441  1.0000  -2.4489   0.0000   0.3760
   8.000   1.0841   0.01671   0.01100  -0.1406  0.1917  1.0000  -2.7420   0.0000   0.3661
   9.000   1.1079   0.02021   0.01437  -0.1360  0.1474  1.0000  -3.0393   0.0000   0.3575
  10.000   1.1292   0.02446   0.01857  -0.1324  0.1138  1.0000  -3.3675   0.0000   0.3503
  11.000   1.1490   0.02951   0.02361  -0.1297  0.0880  1.0000  -3.6995   0.0000   0.3443
  12.000   1.1685   0.03531   0.02949  -0.1284  0.0716  1.0000  -4.0345   0.0000   0.3394
  13.000   1.1850   0.04214   0.03645  -0.1279  0.0586  1.0000  -4.3918   0.0000   0.3356
  14.000   1.1982   0.05008   0.04454  -0.1283  0.0492  1.0000  -4.7486   0.0000   0.3329
  15.000   1.2051   0.05962   0.05428  -0.1295  0.0425  1.0000  -5.0752   0.0000   0.3312
  16.000   1.2111   0.07021   0.06510  -0.1319  0.0375  1.0000  -5.3928   0.0000   0.3306
  17.000   1.2097   0.08265   0.07780  -0.1351  0.0332  1.0000  -5.6629   0.0000   0.3313
  18.000   1.2073   0.09588   0.09130  -0.1395  0.0296  1.0000  -5.9155   0.0000   0.3330
  19.000   1.1950   0.11107   0.10674  -0.1447  0.0268  1.0000  -6.1156   0.0000   0.3362
  20.000   1.1926   0.12437   0.12034  -0.1506  0.0250  1.0000  -6.3696   0.0000   0.3390


