xflr5 v6.49

 Calculated polar for: Aerofoil37

 1 1 Reynolds number fixed          Mach number fixed         

 xtrf =   1.000 (top)        1.000 (bottom)
 Mach =   0.000     Re =     0.500 e 6     Ncrit =   5.000

  alpha     CL        CD       CDp       Cm    Top Xtr Bot Xtr   Cpmin    Chinge    XCp    
 ------- -------- --------- --------- -------- ------- ------- -------- --------- ---------
 -20.000  -0.3603   0.15488   0.15239   0.0063  1.0000  0.0130  -2.4624   0.0000   0.2237
 -19.000  -0.5975   0.08710   0.08423  -0.0055  1.0000  0.0179  -6.5220   0.0000   0.2176
 -18.000  -0.7164   0.05697   0.05357  -0.0115  1.0000  0.0179  -7.6003   0.0000   0.2171
 -17.000  -0.7811   0.03929   0.03546  -0.0134  1.0000  0.0182  -7.8911   0.0000   0.2197
 -16.000  -0.7635   0.02880   0.02449  -0.0225  0.9920  0.0193  -7.5164   0.0000   0.2091
 -15.000  -0.7309   0.02328   0.01858  -0.0251  0.9579  0.0208  -6.9715   0.0000   0.2053
 -14.000  -0.6540   0.01923   0.01412  -0.0343  0.9371  0.0228  -6.1986   0.0000   0.1874
 -13.000  -0.5705   0.01661   0.01121  -0.0422  0.9048  0.0266  -5.3871   0.0000   0.1654
 -12.000  -0.5194   0.01504   0.00927  -0.0399  0.8668  0.0290  -4.7555   0.0000   0.1628
 -11.000  -0.4774   0.01370   0.00767  -0.0345  0.8352  0.0336  -4.1848   0.0000   0.1676
 -10.000  -0.4186   0.01272   0.00646  -0.0328  0.8088  0.0395  -3.6061   0.0000   0.1610
  -9.000  -0.3477   0.01181   0.00540  -0.0342  0.7858  0.0481  -3.0469   0.0000   0.1401
  -8.000  -0.2711   0.01100   0.00450  -0.0370  0.7644  0.0621  -2.4997   0.0000   0.1000
  -7.000  -0.1903   0.01033   0.00376  -0.0409  0.7433  0.0834  -2.0006   0.0000   0.0178
  -6.000  -0.1076   0.00973   0.00316  -0.0453  0.7213  0.1204  -1.5644   0.0000  -0.1984
  -5.000  -0.0239   0.00915   0.00271  -0.0501  0.6999  0.1806  -1.1877   0.0000  -1.9454
  -4.000   0.0595   0.00860   0.00240  -0.0549  0.6790  0.2757  -0.8719   0.0000   1.2069
  -3.000   0.1407   0.00807   0.00219  -0.0591  0.6579  0.4105  -0.6570   0.0000   0.6810
  -2.000   0.2151   0.00749   0.00210  -0.0614  0.6360  0.5940  -0.7170   0.0000   0.5400
  -1.000   0.2935   0.00703   0.00224  -0.0643  0.6129  0.8118  -0.7843   0.0000   0.4704
   0.000   0.4421   0.00743   0.00273  -0.0870  0.5883  0.9008  -0.9009   0.0000   0.4455
   1.000   0.5487   0.00796   0.00320  -0.0981  0.5623  0.9335  -1.0021   0.0000   0.4259
   2.000   0.6619   0.00863   0.00379  -0.1114  0.5332  0.9524  -1.1232   0.0000   0.4138
   3.000   0.7562   0.00922   0.00437  -0.1197  0.5012  0.9705  -1.2607   0.0000   0.4024
   4.000   0.8555   0.00988   0.00492  -0.1299  0.4554  0.9850  -1.5395   0.0000   0.3946
   5.000   0.9284   0.01083   0.00570  -0.1334  0.3884  0.9981  -1.8767   0.0000   0.3851
   6.000   0.9485   0.01219   0.00689  -0.1234  0.3234  1.0000  -2.1545   0.0000   0.3700
   7.000   0.9512   0.01441   0.00887  -0.1104  0.2538  1.0000  -2.4180   0.0000   0.3544
   8.000   0.9597   0.01767   0.01187  -0.1008  0.1793  1.0000  -2.7134   0.0000   0.3418
   9.000   0.9729   0.02173   0.01571  -0.0943  0.1172  1.0000  -3.0305   0.0000   0.3320
  10.000   0.9932   0.02612   0.02002  -0.0904  0.0809  1.0000  -3.4193   0.0000   0.3245
  11.000   1.0147   0.03104   0.02497  -0.0881  0.0580  1.0000  -3.8229   0.0000   0.3184
  12.000   1.0351   0.03659   0.03062  -0.0866  0.0452  1.0000  -4.2308   0.0000   0.3135
  13.000   1.0524   0.04299   0.03717  -0.0858  0.0364  1.0000  -4.6321   0.0000   0.3095
  14.000   1.0672   0.05010   0.04447  -0.0857  0.0305  1.0000  -5.0732   0.0000   0.3062
  15.000   1.0728   0.05878   0.05336  -0.0856  0.0265  1.0000  -5.4734   0.0000   0.3037
  16.000   1.0778   0.06801   0.06287  -0.0864  0.0237  1.0000  -5.8703   0.0000   0.3020
  17.000   1.0715   0.07923   0.07432  -0.0874  0.0210  1.0000  -6.1885   0.0000   0.3011
  18.000   1.0641   0.09111   0.08650  -0.0892  0.0193  1.0000  -6.4840   0.0000   0.3012
  19.000   1.0555   0.10356   0.09926  -0.0920  0.0176  1.0000  -6.7546   0.0000   0.3022
  20.000   1.0411   0.11729   0.11325  -0.0957  0.0162  1.0000  -6.9503   0.0000   0.3045


