xflr5 v6.49

 Calculated polar for: Aerofoil90

 1 1 Reynolds number fixed          Mach number fixed         

 xtrf =   1.000 (top)        1.000 (bottom)
 Mach =   0.000     Re =     0.500 e 6     Ncrit =   5.000

  alpha     CL        CD       CDp       Cm    Top Xtr Bot Xtr   Cpmin    Chinge    XCp    
 ------- -------- --------- --------- -------- ------- ------- -------- --------- ---------
 -20.000  -0.4205   0.16915   0.16664   0.0188  1.0000  0.0103  -2.6867   0.0000   0.2589
 -19.000  -0.4015   0.16024   0.15775   0.0136  1.0000  0.0111  -2.5658   0.0000   0.2498
 -18.000  -0.3883   0.14958   0.14712   0.0090  1.0000  0.0121  -2.5974   0.0000   0.2412
 -17.000  -0.6210   0.08235   0.07943   0.0001  1.0000  0.0157  -6.8937   0.0000   0.2296
 -16.000  -0.7047   0.05936   0.05610  -0.0028  0.9999  0.0158  -7.6284   0.0000   0.2293
 -15.000  -0.7409   0.03866   0.03492  -0.0162  0.9935  0.0164  -7.8562   0.0000   0.2143
 -14.000  -0.7274   0.02632   0.02211  -0.0295  0.9775  0.0175  -7.4821   0.0000   0.1976
 -13.000  -0.7021   0.02103   0.01641  -0.0311  0.9561  0.0190  -6.9068   0.0000   0.1951
 -12.000  -0.6208   0.01774   0.01271  -0.0398  0.9460  0.0212  -6.0564   0.0000   0.1755
 -11.000  -0.5530   0.01533   0.01007  -0.0430  0.9259  0.0252  -5.2901   0.0000   0.1622
 -10.000  -0.4709   0.01358   0.00803  -0.0486  0.9081  0.0298  -4.4891   0.0000   0.1365
  -9.000  -0.3835   0.01218   0.00639  -0.0551  0.8898  0.0365  -3.7042   0.0000   0.0956
  -8.000  -0.2992   0.01102   0.00514  -0.0605  0.8705  0.0486  -3.0300   0.0000   0.0360
  -7.000  -0.2085   0.01010   0.00413  -0.0673  0.8526  0.0672  -2.4166   0.0000  -0.0875
  -6.000  -0.1152   0.00928   0.00328  -0.0748  0.8335  0.1010  -1.8561   0.0000  -0.4222
  -5.000  -0.0227   0.00859   0.00269  -0.0821  0.8135  0.1546  -1.3932   0.0000  -3.4658
  -4.000   0.0716   0.00802   0.00227  -0.0898  0.7933  0.2278  -1.0087   0.0000   1.5294
  -3.000   0.1669   0.00760   0.00199  -0.0978  0.7720  0.3112  -0.7067   0.0000   0.8434
  -2.000   0.2622   0.00732   0.00185  -0.1057  0.7487  0.3972  -0.5934   0.0000   0.6559
  -1.000   0.3567   0.00716   0.00183  -0.1133  0.7231  0.4813  -0.6582   0.0000   0.5681
   0.000   0.4496   0.00708   0.00192  -0.1205  0.6951  0.5654  -0.7307   0.0000   0.5169
   1.000   0.5399   0.00707   0.00212  -0.1269  0.6630  0.6560  -0.8152   0.0000   0.4828
   2.000   0.6239   0.00710   0.00241  -0.1315  0.6219  0.7673  -0.9343   0.0000   0.4575
   3.000   0.7219   0.00737   0.00287  -0.1399  0.5581  0.9800  -1.1885   0.0000   0.4394
   4.000   0.7844   0.00828   0.00343  -0.1393  0.4642  1.0000  -1.4841   0.0000   0.4221
   5.000   0.8125   0.00957   0.00431  -0.1298  0.3575  1.0000  -1.7695   0.0000   0.4032
   6.000   0.8400   0.01149   0.00571  -0.1212  0.2370  1.0000  -2.0936   0.0000   0.3868
   7.000   0.8720   0.01366   0.00749  -0.1148  0.1422  1.0000  -2.4642   0.0000   0.3730
   8.000   0.9099   0.01592   0.00952  -0.1106  0.0868  1.0000  -2.9000   0.0000   0.3617
   9.000   0.9504   0.01828   0.01184  -0.1076  0.0575  1.0000  -3.3963   0.0000   0.3522
  10.000   0.9891   0.02100   0.01461  -0.1050  0.0428  1.0000  -3.9066   0.0000   0.3439
  11.000   1.0249   0.02418   0.01790  -0.1027  0.0333  1.0000  -4.4298   0.0000   0.3366
  12.000   1.0553   0.02809   0.02195  -0.1003  0.0271  1.0000  -5.0128   0.0000   0.3302
  13.000   1.0821   0.03269   0.02677  -0.0985  0.0232  1.0000  -5.5941   0.0000   0.3246
  14.000   1.0984   0.03875   0.03306  -0.0964  0.0204  1.0000  -6.1206   0.0000   0.3198
  15.000   1.1153   0.04541   0.04000  -0.0957  0.0181  1.0000  -6.6641   0.0000   0.3162
  16.000   1.1211   0.05404   0.04888  -0.0954  0.0160  1.0000  -7.1367   0.0000   0.3138
  17.000   1.1126   0.06550   0.06068  -0.0959  0.0147  1.0000  -7.4715   0.0000   0.3129
  18.000   1.1055   0.07800   0.07357  -0.0983  0.0139  1.0000  -7.7941   0.0000   0.3137
  19.000   1.0887   0.09318   0.08916  -0.1024  0.0131  1.0000  -7.9894   0.0000   0.3167
  20.000   1.0653   0.11037   0.10674  -0.1081  0.0124  1.0000  -8.0580   0.0000   0.3219


