xflr5 v6.49

 Calculated polar for: Aerofoil4

 1 1 Reynolds number fixed          Mach number fixed         

 xtrf =   1.000 (top)        1.000 (bottom)
 Mach =   0.000     Re =     0.500 e 6     Ncrit =   5.000

  alpha     CL        CD       CDp       Cm    Top Xtr Bot Xtr   Cpmin    Chinge    XCp    
 ------- -------- --------- --------- -------- ------- ------- -------- --------- ---------
 -20.000  -0.4035   0.17317   0.17075   0.0186  1.0000  0.0095  -2.1404   0.0000   0.2571
 -19.000  -0.3914   0.15901   0.15661   0.0119  0.9994  0.0099  -2.5558   0.0000   0.2440
 -18.000  -0.3663   0.14480   0.14240   0.0012  0.9970  0.0111  -2.7397   0.0000   0.2180
 -16.000  -0.6668   0.04841   0.04517  -0.0251  0.9873  0.0138  -8.1805   0.0000   0.1977
 -15.000  -0.6837   0.03229   0.02843  -0.0368  0.9772  0.0145  -8.1317   0.0000   0.1843
 -14.000  -0.6800   0.02550   0.02111  -0.0358  0.9627  0.0152  -7.6695   0.0000   0.1872
 -13.000  -0.6500   0.02086   0.01602  -0.0341  0.9489  0.0165  -7.0036   0.0000   0.1883
 -12.000  -0.6099   0.01830   0.01316  -0.0301  0.9323  0.0182  -6.2268   0.0000   0.1919
 -11.000  -0.5302   0.01591   0.01045  -0.0353  0.9215  0.0209  -5.3846   0.0000   0.1746
 -10.000  -0.4549   0.01403   0.00836  -0.0388  0.9068  0.0250  -4.5964   0.0000   0.1557
  -9.000  -0.3552   0.01239   0.00650  -0.0485  0.8942  0.0310  -3.7450   0.0000   0.1032
  -8.000  -0.2639   0.01120   0.00520  -0.0556  0.8768  0.0405  -2.9810   0.0000   0.0269
  -7.000  -0.1569   0.01015   0.00403  -0.0670  0.8598  0.0582  -2.2923   0.0000  -0.1959
  -6.000  -0.0685   0.00936   0.00323  -0.0732  0.8362  0.0912  -1.7347   0.0000  -0.8557
  -5.000   0.0174   0.00867   0.00266  -0.0787  0.8110  0.1531  -1.2746   0.0000   4.8977
  -3.000   0.1839   0.00747   0.00198  -0.0884  0.7571  0.4017  -0.6015   0.0000   0.7381
  -2.000   0.2622   0.00703   0.00189  -0.0917  0.7285  0.5599  -0.6359   0.0000   0.6032
  -1.000   0.3362   0.00672   0.00193  -0.0937  0.6992  0.7182  -0.6938   0.0000   0.5295
   0.000   0.4137   0.00664   0.00217  -0.0963  0.6687  0.8661  -0.7591   0.0000   0.4819
   1.000   0.5528   0.00721   0.00276  -0.1168  0.6361  0.9359  -0.8706   0.0000   0.4588
   2.000   0.6555   0.00777   0.00324  -0.1271  0.5984  0.9721  -0.9772   0.0000   0.4403
   3.000   0.7622   0.00839   0.00376  -0.1391  0.5511  0.9958  -1.2208   0.0000   0.4275
   4.000   0.8158   0.00924   0.00435  -0.1365  0.4714  1.0000  -1.5314   0.0000   0.4112
   5.000   0.8407   0.01052   0.00530  -0.1266  0.3827  1.0000  -1.8361   0.0000   0.3932
   6.000   0.8662   0.01252   0.00685  -0.1180  0.2674  1.0000  -2.1808   0.0000   0.3776
   7.000   0.8883   0.01534   0.00917  -0.1099  0.1474  1.0000  -2.5622   0.0000   0.3638
   8.000   0.9191   0.01820   0.01176  -0.1049  0.0801  1.0000  -3.0101   0.0000   0.3528
   9.000   0.9561   0.02112   0.01466  -0.1020  0.0507  1.0000  -3.5024   0.0000   0.3440
  10.000   0.9907   0.02448   0.01807  -0.0996  0.0353  1.0000  -4.0455   0.0000   0.3364
  11.000   1.0221   0.02846   0.02219  -0.0976  0.0273  1.0000  -4.6299   0.0000   0.3297
  12.000   1.0511   0.03299   0.02694  -0.0961  0.0228  1.0000  -5.2212   0.0000   0.3241
  13.000   1.0705   0.03883   0.03301  -0.0944  0.0195  1.0000  -5.7695   0.0000   0.3191
  14.000   1.0875   0.04539   0.03981  -0.0935  0.0167  1.0000  -6.3223   0.0000   0.3151
  15.000   1.0888   0.05423   0.04892  -0.0921  0.0147  1.0000  -6.7577   0.0000   0.3118
  16.000   1.0918   0.06355   0.05860  -0.0922  0.0137  1.0000  -7.2023   0.0000   0.3097
  17.000   1.0861   0.07463   0.07003  -0.0929  0.0126  1.0000  -7.5716   0.0000   0.3087
  18.000   1.0733   0.08740   0.08313  -0.0944  0.0117  1.0000  -7.9216   0.0000   0.3090
  19.000   1.0513   0.10225   0.09834  -0.0971  0.0110  1.0000  -8.1403   0.0000   0.3111
  20.000   1.0225   0.11894   0.11537  -0.1012  0.0104  1.0000  -8.2065   0.0000   0.3154


