xflr5 v6.49

 Calculated polar for: Aerofoil46

 1 1 Reynolds number fixed          Mach number fixed         

 xtrf =   1.000 (top)        1.000 (bottom)
 Mach =   0.000     Re =     0.500 e 6     Ncrit =   5.000

  alpha     CL        CD       CDp       Cm    Top Xtr Bot Xtr   Cpmin    Chinge    XCp    
 ------- -------- --------- --------- -------- ------- ------- -------- --------- ---------
 -20.000  -0.6710   0.08952   0.08617  -0.0043  1.0000  0.0214  -6.5530   0.0000   0.2151
 -19.000  -0.7254   0.07137   0.06769  -0.0068  1.0000  0.0219  -6.8274   0.0000   0.2164
 -18.000  -0.7552   0.05298   0.04893  -0.0163  0.9968  0.0231  -6.9140   0.0000   0.2075
 -17.000  -0.7506   0.04008   0.03569  -0.0260  0.9894  0.0249  -6.6780   0.0000   0.1968
 -16.000  -0.7189   0.03154   0.02684  -0.0350  0.9757  0.0271  -6.2341   0.0000   0.1842
 -15.000  -0.6918   0.02557   0.02055  -0.0376  0.9561  0.0287  -5.7802   0.0000   0.1797
 -14.000  -0.6406   0.02060   0.01535  -0.0440  0.9411  0.0321  -5.2201   0.0000   0.1662
 -13.000  -0.5640   0.01756   0.01205  -0.0525  0.9225  0.0364  -4.5763   0.0000   0.1416
 -12.000  -0.4806   0.01513   0.00945  -0.0612  0.9001  0.0434  -3.9723   0.0000   0.1065
 -11.000  -0.4237   0.01354   0.00762  -0.0613  0.8700  0.0503  -3.4770   0.0000   0.0889
 -10.000  -0.3768   0.01249   0.00638  -0.0575  0.8410  0.0596  -3.0278   0.0000   0.0808
  -9.000  -0.3247   0.01169   0.00547  -0.0545  0.8154  0.0737  -2.6026   0.0000   0.0650
  -8.000  -0.2562   0.01094   0.00464  -0.0556  0.7929  0.0950  -2.1832   0.0000   0.0138
  -7.000  -0.1817   0.01022   0.00393  -0.0582  0.7714  0.1288  -1.7786   0.0000  -0.0941
  -6.000  -0.1034   0.00956   0.00333  -0.0618  0.7493  0.1817  -1.4267   0.0000  -0.3840
  -5.000  -0.0238   0.00895   0.00288  -0.0657  0.7274  0.2573  -1.1186   0.0000  -2.6402
  -4.000   0.0571   0.00841   0.00256  -0.0700  0.7059  0.3507  -0.8564   0.0000   1.5192
  -3.000   0.1394   0.00801   0.00238  -0.0745  0.6843  0.4475  -0.6708   0.0000   0.7977
  -2.000   0.2222   0.00778   0.00231  -0.0791  0.6619  0.5372  -0.7330   0.0000   0.6110
  -1.000   0.3043   0.00769   0.00234  -0.0835  0.6385  0.6154  -0.7996   0.0000   0.5253
   0.000   0.3831   0.00770   0.00246  -0.0869  0.6141  0.6829  -0.8703   0.0000   0.4754
   1.000   0.4533   0.00774   0.00264  -0.0880  0.5890  0.7455  -0.9420   0.0000   0.4408
   2.000   0.5159   0.00789   0.00293  -0.0871  0.5626  0.8077  -1.0174   0.0000   0.4139
   3.000   0.5812   0.00823   0.00340  -0.0872  0.5342  0.8784  -1.1065   0.0000   0.3935
   4.000   0.6922   0.00899   0.00425  -0.1003  0.4992  0.9392  -1.2642   0.0000   0.3872
   5.000   0.7945   0.01007   0.00525  -0.1117  0.4514  0.9871  -1.5157   0.0000   0.3817
   6.000   0.8663   0.01155   0.00654  -0.1158  0.3895  1.0000  -1.8022   0.0000   0.3733
   7.000   0.8909   0.01343   0.00823  -0.1080  0.3289  1.0000  -2.0465   0.0000   0.3594
   8.000   0.9138   0.01613   0.01069  -0.1012  0.2601  1.0000  -2.3181   0.0000   0.3474
   9.000   0.9340   0.01969   0.01401  -0.0954  0.1924  1.0000  -2.5936   0.0000   0.3372
  10.000   0.9549   0.02384   0.01798  -0.0910  0.1374  1.0000  -2.9098   0.0000   0.3288
  11.000   0.9762   0.02855   0.02260  -0.0879  0.0981  1.0000  -3.2341   0.0000   0.3219
  12.000   0.9995   0.03363   0.02767  -0.0862  0.0746  1.0000  -3.5755   0.0000   0.3164
  13.000   1.0217   0.03927   0.03339  -0.0853  0.0585  1.0000  -3.9581   0.0000   0.3118
  14.000   1.0399   0.04567   0.03993  -0.0847  0.0480  1.0000  -4.3315   0.0000   0.3080
  15.000   1.0538   0.05296   0.04738  -0.0846  0.0410  1.0000  -4.6902   0.0000   0.3049
  16.000   1.0594   0.06156   0.05615  -0.0845  0.0349  1.0000  -5.0113   0.0000   0.3024
  17.000   1.0657   0.07055   0.06539  -0.0854  0.0310  1.0000  -5.3343   0.0000   0.3007
  18.000   1.0587   0.08157   0.07662  -0.0861  0.0275  1.0000  -5.6089   0.0000   0.2998
  19.000   1.0560   0.09243   0.08777  -0.0880  0.0255  1.0000  -5.9072   0.0000   0.2996
  20.000   1.0469   0.10442   0.10002  -0.0905  0.0234  1.0000  -6.1511   0.0000   0.3004


