xflr5 v6.49

 Calculated polar for: Aerofoil88

 1 1 Reynolds number fixed          Mach number fixed         

 xtrf =   1.000 (top)        1.000 (bottom)
 Mach =   0.000     Re =     0.500 e 6     Ncrit =   5.000

  alpha     CL        CD       CDp       Cm    Top Xtr Bot Xtr   Cpmin    Chinge    XCp    
 ------- -------- --------- --------- -------- ------- ------- -------- --------- ---------
 -20.000  -0.2691   0.16007   0.15803   0.0043  1.0000  0.0099  -1.1298   0.0000   0.2377
 -18.000  -0.3002   0.15049   0.14816  -0.0049  1.0000  0.0071  -1.8216   0.0000   0.1996
 -17.000  -0.2809   0.14021   0.13793  -0.0101  0.9996  0.0081  -1.8698   0.0000   0.1808
 -16.000  -0.2422   0.12502   0.12270  -0.0241  0.9941  0.0099  -2.0308   0.0000   0.1150
 -15.000  -0.2087   0.11165   0.10933  -0.0353  0.9717  0.0094  -2.0116   0.0000   0.0432
 -14.000  -0.1767   0.09676   0.09441  -0.0479  0.9523  0.0089  -2.2053   0.0000  -0.0620
 -13.000  -0.1565   0.07434   0.07196  -0.0667  0.9373  0.0100  -3.3579   0.0000  -0.2172
 -12.000  -0.3974   0.02869   0.02571  -0.0676  0.8612  0.0092  -7.5845   0.0000   0.0699
 -11.000  -0.3917   0.02068   0.01662  -0.0651  0.8365  0.0099  -7.3221   0.0000   0.0753
 -10.000  -0.3236   0.01576   0.01088  -0.0701  0.8198  0.0112  -6.4087   0.0000   0.0243
  -9.000  -0.2351   0.01365   0.00829  -0.0774  0.8051  0.0140  -5.2038   0.0000  -0.0910
  -8.000  -0.1428   0.01147   0.00574  -0.0855  0.7904  0.0176  -4.1169   0.0000  -0.3666
  -7.000  -0.0466   0.01019   0.00415  -0.0940  0.7767  0.0243  -3.1063   0.0000  -1.8215
  -6.000   0.0519   0.00927   0.00308  -0.1031  0.7624  0.0378  -2.2735   0.0000   2.2800
  -5.000   0.1507   0.00857   0.00234  -0.1122  0.7481  0.0769  -1.5163   0.0000   1.0087
  -4.000   0.2501   0.00791   0.00193  -0.1218  0.7340  0.1769  -0.9375   0.0000   0.7444
  -3.000   0.3491   0.00739   0.00172  -0.1313  0.7193  0.3356  -0.6856   0.0000   0.6303
  -2.000   0.4479   0.00703   0.00173  -0.1406  0.7035  0.5015  -0.7461   0.0000   0.5663
  -1.000   0.5454   0.00683   0.00189  -0.1495  0.6885  0.6599  -0.8090   0.0000   0.5250
   0.000   0.6364   0.00660   0.00210  -0.1564  0.6713  0.8483  -0.8722   0.0000   0.4951
   1.000   0.7368   0.00667   0.00234  -0.1660  0.6541  1.0000  -0.9451   0.0000   0.4735
   2.000   0.8332   0.00702   0.00274  -0.1749  0.6350  1.0000  -1.1892   0.0000   0.4568
   3.000   0.9186   0.00757   0.00313  -0.1807  0.5636  1.0000  -1.7564   0.0000   0.4423
   4.000   0.9460   0.01023   0.00471  -0.1724  0.3179  1.0000  -2.2163   0.0000   0.4265
   5.000   0.9257   0.01393   0.00745  -0.1535  0.1004  1.0000  -2.5578   0.0000   0.4089
   6.000   0.9547   0.01672   0.01002  -0.1479  0.0375  1.0000  -3.1540   0.0000   0.3967
   7.000   0.9945   0.01942   0.01279  -0.1454  0.0230  1.0000  -3.8354   0.0000   0.3866
   8.000   1.0321   0.02263   0.01613  -0.1433  0.0157  1.0000  -4.5384   0.0000   0.3778
   9.000   1.0655   0.02651   0.02024  -0.1412  0.0126  1.0000  -5.3290   0.0000   0.3700
  10.000   1.0925   0.03143   0.02537  -0.1389  0.0102  1.0000  -6.1551   0.0000   0.3631
  11.000   1.1198   0.03697   0.03124  -0.1377  0.0089  1.0000  -6.9956   0.0000   0.3573
  12.000   1.1499   0.04276   0.03733  -0.1380  0.0074  1.0000  -7.9427   0.0000   0.3526
  13.000   1.1698   0.05033   0.04524  -0.1380  0.0064  1.0000  -8.8061   0.0000   0.3489
  14.000   1.1752   0.06080   0.05621  -0.1379  0.0059  1.0000  -9.4396   0.0000   0.3464
  15.000   1.1747   0.07310   0.06909  -0.1393  0.0056  1.0000  -10.0256   0.0000   0.3458
  16.000   1.1539   0.09011   0.08673  -0.1423  0.0053  1.0000  -10.2834   0.0000   0.3484
  17.000   1.1095   0.11363   0.11092  -0.1486  0.0051  1.0000  -10.0484   0.0000   0.3570
  18.000   1.0209   0.15247   0.15043  -0.1624  0.0053  1.0000  -8.4299   0.0000   0.3806
  19.000   0.9122   0.21015   0.20806  -0.1777  0.0047  1.0000  -3.1428   0.0000   0.4171
  20.000   0.9253   0.22362   0.22151  -0.1857  0.0051  1.0000  -2.8613   0.0000   0.4209


