xflr5 v6.49

 Calculated polar for: Aerofoil59

 1 1 Reynolds number fixed          Mach number fixed         

 xtrf =   1.000 (top)        1.000 (bottom)
 Mach =   0.000     Re =     0.500 e 6     Ncrit =   5.000

  alpha     CL        CD       CDp       Cm    Top Xtr Bot Xtr   Cpmin    Chinge    XCp    
 ------- -------- --------- --------- -------- ------- ------- -------- --------- ---------
 -20.000  -0.2312   0.15825   0.15568  -0.0411  0.9786  0.0110  -2.1910   0.0000  -0.0080
 -19.000  -0.1916   0.14685   0.14426  -0.0539  0.9734  0.0121  -2.1158   0.0000  -0.1205
 -18.000  -0.1846   0.13540   0.13282  -0.0570  0.9628  0.0135  -2.2639   0.0000  -0.1443
 -17.000  -0.1962   0.11388   0.11128  -0.0652  0.9556  0.0159  -3.0677   0.0000  -0.1574
 -16.000  -0.4877   0.04702   0.04360  -0.0761  0.9481  0.0177  -7.0762   0.0000   0.0666
 -15.000  -0.5221   0.03100   0.02706  -0.0840  0.9327  0.0183  -7.2082   0.0000   0.0670
 -14.000  -0.4900   0.02286   0.01838  -0.0940  0.9197  0.0197  -6.7423   0.0000   0.0376
 -13.000  -0.4454   0.01907   0.01416  -0.0970  0.9024  0.0212  -6.1221   0.0000   0.0121
 -12.000  -0.4041   0.01643   0.01118  -0.0953  0.8847  0.0241  -5.5032   0.0000  -0.0056
 -11.000  -0.3633   0.01498   0.00944  -0.0907  0.8652  0.0269  -4.8874   0.0000  -0.0191
 -10.000  -0.3118   0.01363   0.00784  -0.0882  0.8489  0.0304  -4.2547   0.0000  -0.0532
  -9.000  -0.2344   0.01250   0.00645  -0.0922  0.8345  0.0362  -3.5610   0.0000  -0.1671
  -8.000  -0.1665   0.01158   0.00545  -0.0933  0.8194  0.0449  -2.9985   0.0000  -0.3395
  -7.000  -0.0801   0.01074   0.00445  -0.0993  0.8058  0.0582  -2.4088   0.0000  -1.0423
  -5.000   0.0823   0.00951   0.00322  -0.1082  0.7769  0.1153  -1.4576   0.0000   1.6029
  -4.000   0.1584   0.00903   0.00287  -0.1112  0.7620  0.1697  -1.0924   0.0000   0.9680
  -3.000   0.2435   0.00859   0.00259  -0.1168  0.7475  0.2521  -0.7738   0.0000   0.7371
  -2.000   0.3167   0.00822   0.00246  -0.1190  0.7308  0.3554  -0.7647   0.0000   0.6293
  -1.000   0.3827   0.00786   0.00243  -0.1192  0.7144  0.4860  -0.8080   0.0000   0.5625
   0.000   0.4519   0.00750   0.00249  -0.1202  0.6963  0.6623  -0.8565   0.0000   0.5150
   1.000   0.5650   0.00749   0.00315  -0.1332  0.6792  0.9108  -0.9343   0.0000   0.4834
   2.000   0.7050   0.00805   0.00369  -0.1542  0.6606  0.9740  -1.0356   0.0000   0.4650
   3.000   0.8237   0.00855   0.00415  -0.1696  0.6378  0.9982  -1.1343   0.0000   0.4508
   4.000   0.8791   0.00905   0.00461  -0.1675  0.6106  1.0000  -1.2242   0.0000   0.4342
   5.000   0.9175   0.00983   0.00536  -0.1609  0.5710  1.0000  -1.4447   0.0000   0.4178
   6.000   0.9397   0.01139   0.00669  -0.1510  0.5014  1.0000  -1.6900   0.0000   0.4018
   7.000   0.9587   0.01380   0.00885  -0.1416  0.4182  1.0000  -1.9607   0.0000   0.3874
   8.000   0.9631   0.01761   0.01223  -0.1304  0.3108  1.0000  -2.2319   0.0000   0.3737
   9.000   0.9671   0.02237   0.01650  -0.1211  0.1960  1.0000  -2.5062   0.0000   0.3620
  10.000   0.9836   0.02708   0.02089  -0.1154  0.1152  1.0000  -2.8620   0.0000   0.3527
  11.000   1.0096   0.03161   0.02529  -0.1124  0.0720  1.0000  -3.2702   0.0000   0.3451
  12.000   1.0392   0.03623   0.02996  -0.1107  0.0512  1.0000  -3.7063   0.0000   0.3388
  13.000   1.0668   0.04133   0.03513  -0.1094  0.0382  1.0000  -4.1800   0.0000   0.3333
  14.000   1.0911   0.04703   0.04100  -0.1084  0.0306  1.0000  -4.6842   0.0000   0.3284
  15.000   1.1098   0.05364   0.04780  -0.1074  0.0259  1.0000  -5.1724   0.0000   0.3241
  16.000   1.1236   0.06105   0.05541  -0.1067  0.0221  1.0000  -5.6453   0.0000   0.3204
  17.000   1.1324   0.06944   0.06408  -0.1063  0.0194  1.0000  -6.0923   0.0000   0.3174
  18.000   1.1362   0.07881   0.07372  -0.1064  0.0172  1.0000  -6.5104   0.0000   0.3153
  19.000   1.1282   0.09015   0.08532  -0.1068  0.0155  1.0000  -6.8353   0.0000   0.3141
  20.000   1.1182   0.10214   0.09765  -0.1082  0.0144  1.0000  -7.1194   0.0000   0.3140


