xflr5 v6.49

 Calculated polar for: Aerofoil54

 1 1 Reynolds number fixed          Mach number fixed         

 xtrf =   1.000 (top)        1.000 (bottom)
 Mach =   0.000     Re =     0.500 e 6     Ncrit =   5.000

  alpha     CL        CD       CDp       Cm    Top Xtr Bot Xtr   Cpmin    Chinge    XCp    
 ------- -------- --------- --------- -------- ------- ------- -------- --------- ---------
 -20.000  -0.7437   0.07673   0.07274  -0.0052  1.0000  0.0364  -5.6410   0.0000   0.2120
 -19.000  -0.7761   0.06356   0.05933  -0.0061  1.0000  0.0381  -5.6455   0.0000   0.2145
 -18.000  -0.7844   0.05002   0.04554  -0.0132  0.9972  0.0411  -5.5343   0.0000   0.2081
 -17.000  -0.7596   0.03976   0.03501  -0.0229  0.9894  0.0442  -5.2477   0.0000   0.1965
 -16.000  -0.7331   0.03202   0.02701  -0.0287  0.9671  0.0471  -4.9252   0.0000   0.1891
 -15.000  -0.6946   0.02544   0.02025  -0.0353  0.9478  0.0522  -4.5514   0.0000   0.1786
 -14.000  -0.6303   0.02105   0.01565  -0.0438  0.9249  0.0585  -4.1228   0.0000   0.1601
 -13.000  -0.5271   0.01764   0.01204  -0.0601  0.9034  0.0677  -3.5957   0.0000   0.1143
 -12.000  -0.4535   0.01525   0.00943  -0.0670  0.8677  0.0791  -3.1631   0.0000   0.0795
 -11.000  -0.4156   0.01372   0.00771  -0.0631  0.8319  0.0911  -2.8471   0.0000   0.0760
 -10.000  -0.3783   0.01260   0.00644  -0.0576  0.8019  0.1049  -2.5545   0.0000   0.0758
  -9.000  -0.3333   0.01175   0.00548  -0.0532  0.7753  0.1234  -2.2522   0.0000   0.0682
  -8.000  -0.2887   0.01111   0.00478  -0.0481  0.7500  0.1475  -1.9824   0.0000   0.0607
  -7.000  -0.2242   0.01053   0.00420  -0.0480  0.7266  0.1791  -1.6929   0.0000   0.0104
  -6.000  -0.1523   0.00998   0.00370  -0.0498  0.7041  0.2206  -1.4295   0.0000  -0.1087
  -5.000  -0.0758   0.00950   0.00331  -0.0527  0.6821  0.2713  -1.1879   0.0000  -0.4979
  -4.000   0.0038   0.00914   0.00302  -0.0564  0.6602  0.3272  -0.9740   0.0000  15.9581
  -3.000   0.0838   0.00885   0.00282  -0.0601  0.6375  0.3870  -0.7913   0.0000   0.9946
  -2.000   0.1632   0.00866   0.00272  -0.0637  0.6140  0.4486  -0.7886   0.0000   0.6488
  -1.000   0.2411   0.00853   0.00271  -0.0669  0.5907  0.5097  -0.8606   0.0000   0.5291
   0.000   0.3146   0.00849   0.00279  -0.0689  0.5670  0.5692  -0.9356   0.0000   0.4669
   1.000   0.3754   0.00850   0.00291  -0.0675  0.5429  0.6276  -1.0089   0.0000   0.4252
   2.000   0.4372   0.00868   0.00322  -0.0666  0.5180  0.6884  -1.0908   0.0000   0.3956
   3.000   0.4923   0.00899   0.00368  -0.0641  0.4921  0.7548  -1.1763   0.0000   0.3717
   4.000   0.5450   0.00942   0.00435  -0.0612  0.4647  0.8370  -1.2719   0.0000   0.3523
   5.000   0.6617   0.01045   0.00549  -0.0763  0.4308  0.9239  -1.4446   0.0000   0.3543
   6.000   0.7883   0.01181   0.00681  -0.0947  0.3906  0.9623  -1.6732   0.0000   0.3580
   7.000   0.8727   0.01364   0.00854  -0.1027  0.3490  0.9994  -1.9045   0.0000   0.3542
   8.000   0.9054   0.01573   0.01051  -0.0980  0.3103  1.0000  -2.0969   0.0000   0.3432
   9.000   0.9347   0.01847   0.01315  -0.0936  0.2700  1.0000  -2.3050   0.0000   0.3335
  10.000   0.9611   0.02199   0.01657  -0.0899  0.2302  1.0000  -2.5253   0.0000   0.3252
  11.000   0.9847   0.02623   0.02074  -0.0868  0.1927  1.0000  -2.7622   0.0000   0.3181
  12.000   1.0043   0.03133   0.02578  -0.0843  0.1597  1.0000  -2.9942   0.0000   0.3121
  13.000   1.0230   0.03700   0.03146  -0.0827  0.1331  1.0000  -3.2499   0.0000   0.3072
  14.000   1.0369   0.04359   0.03809  -0.0815  0.1106  1.0000  -3.4941   0.0000   0.3031
  15.000   1.0483   0.05088   0.04546  -0.0809  0.0942  1.0000  -3.7331   0.0000   0.2997
  16.000   1.0560   0.05899   0.05367  -0.0808  0.0802  1.0000  -3.9838   0.0000   0.2970
  17.000   1.0586   0.06811   0.06294  -0.0811  0.0696  1.0000  -4.2130   0.0000   0.2950
  18.000   1.0582   0.07797   0.07295  -0.0819  0.0616  1.0000  -4.4256   0.0000   0.2937
  19.000   1.0524   0.08887   0.08402  -0.0832  0.0545  1.0000  -4.6088   0.0000   0.2932
  20.000   1.0496   0.09961   0.09498  -0.0855  0.0488  1.0000  -4.8084   0.0000   0.2933


