xflr5 v6.49

 Calculated polar for: Aerofoil74

 1 1 Reynolds number fixed          Mach number fixed         

 xtrf =   1.000 (top)        1.000 (bottom)
 Mach =   0.000     Re =     0.500 e 6     Ncrit =   5.000

  alpha     CL        CD       CDp       Cm    Top Xtr Bot Xtr   Cpmin    Chinge    XCp    
 ------- -------- --------- --------- -------- ------- ------- -------- --------- ---------
 -20.000  -0.2402   0.16535   0.16325  -0.0166  0.9939  0.0062  -1.1676   0.0000   0.1465
 -19.000  -0.2104   0.15626   0.15411  -0.0271  0.9875  0.0065  -1.0798   0.0000   0.0846
 -18.000  -0.1819   0.14780   0.14560  -0.0374  0.9809  0.0071  -1.0654   0.0000   0.0044
 -17.000  -0.1552   0.14006   0.13782  -0.0475  0.9753  0.0079  -1.0987   0.0000  -0.1008
 -16.000  -0.1363   0.13225   0.12998  -0.0547  0.9670  0.0096  -1.2467   0.0000  -0.1999
 -15.000  -0.1907   0.12690   0.12446  -0.0521  0.9705  0.0058  -1.9769   0.0000  -0.0689
 -14.000  -0.1723   0.11552   0.11310  -0.0576  0.9594  0.0065  -2.0749   0.0000  -0.1302
 -13.000  -0.1412   0.10391   0.10149  -0.0672  0.9521  0.0077  -1.9973   0.0000  -0.2768
 -12.000  -0.1113   0.08982   0.08737  -0.0793  0.9463  0.0096  -2.1873   0.0000  -0.5202
 -11.000  -0.0972   0.07818   0.07573  -0.0851  0.9323  0.0088  -2.2429   0.0000  -0.6841
 -10.000  -0.0772   0.06197   0.05950  -0.0991  0.9207  0.0081  -2.6450   0.0000  -1.0983
  -9.000  -0.1362   0.03443   0.03170  -0.1142  0.8915  0.0075  -4.3525   0.0000  -0.6179
  -8.000  -0.2056   0.01781   0.01332  -0.0923  0.8616  0.0079  -5.8480   0.0000  -0.2150
  -7.000  -0.1447   0.01390   0.00855  -0.0928  0.8471  0.0098  -5.1445   0.0000  -0.4106
  -6.000  -0.0624   0.01172   0.00591  -0.0984  0.8339  0.0130  -4.0453   0.0000  -1.3642
  -5.000   0.0169   0.01022   0.00414  -0.1028  0.8208  0.0181  -3.0538   0.0000   6.4594
  -4.000   0.1072   0.00927   0.00299  -0.1101  0.8081  0.0316  -2.0671   0.0000   1.2910
  -3.000   0.1926   0.00859   0.00238  -0.1160  0.7950  0.0798  -1.3499   0.0000   0.8585
  -2.000   0.2806   0.00768   0.00197  -0.1230  0.7819  0.2943  -0.7382   0.0000   0.6912
  -1.000   0.3553   0.00661   0.00197  -0.1261  0.7683  0.6887  -0.6895   0.0000   0.6060
   0.000   0.4676   0.00638   0.00217  -0.1388  0.7550  0.9317  -0.7516   0.0000   0.5467
   1.000   0.6008   0.00668   0.00244  -0.1582  0.7429  0.9755  -0.8268   0.0000   0.5120
   2.000   0.7245   0.00690   0.00267  -0.1750  0.7281  0.9960  -0.9007   0.0000   0.4895
   3.000   0.8142   0.00715   0.00308  -0.1823  0.7116  1.0000  -1.1945   0.0000   0.4709
   4.000   0.8516   0.00752   0.00326  -0.1742  0.6444  1.0000  -1.7240   0.0000   0.4507
   5.000   0.8372   0.00880   0.00408  -0.1523  0.5139  1.0000  -2.1164   0.0000   0.4271
   6.000   0.7657   0.01416   0.00775  -0.1200  0.1349  1.0000  -2.2405   0.0000   0.4009
   7.000   0.7938   0.01715   0.01037  -0.1137  0.0295  1.0000  -2.8310   0.0000   0.3865
   8.000   0.8369   0.01971   0.01299  -0.1112  0.0154  1.0000  -3.6315   0.0000   0.3752
   9.000   0.8778   0.02263   0.01612  -0.1088  0.0111  1.0000  -4.5442   0.0000   0.3653
  10.000   0.9109   0.02637   0.02011  -0.1054  0.0087  1.0000  -5.4221   0.0000   0.3560
  11.000   0.9476   0.03008   0.02405  -0.1034  0.0067  1.0000  -6.4559   0.0000   0.3482
  12.000   0.9802   0.03450   0.02883  -0.1007  0.0058  1.0000  -7.3732   0.0000   0.3407
  13.000   1.0123   0.03939   0.03424  -0.0982  0.0047  1.0000  -8.2352   0.0000   0.3339
  14.000   1.0279   0.04610   0.04153  -0.0944  0.0041  1.0000  -8.9428   0.0000   0.3274
  15.000   1.0142   0.05622   0.05235  -0.0887  0.0038  1.0000  -9.3106   0.0000   0.3216
  16.000   0.9612   0.07275   0.06966  -0.0829  0.0037  1.0000  -9.0653   0.0000   0.3186
  17.000   0.8485   0.10623   0.10401  -0.0849  0.0039  1.0000  -7.4831   0.0000   0.3301
  18.000   0.7413   0.16432   0.16211  -0.1028  0.0048  1.0000  -3.1829   0.0000   0.3668
  19.000   0.7503   0.18069   0.17845  -0.1115  0.0054  1.0000  -2.8716   0.0000   0.3746
  20.000   0.7661   0.19378   0.19153  -0.1195  0.0059  1.0000  -2.8401   0.0000   0.3798


