xflr5 v6.49

 Calculated polar for: Aerofoil2

 1 1 Reynolds number fixed          Mach number fixed         

 xtrf =   1.000 (top)        1.000 (bottom)
 Mach =   0.000     Re =     0.500 e 6     Ncrit =   5.000

  alpha     CL        CD       CDp       Cm    Top Xtr Bot Xtr   Cpmin    Chinge    XCp    
 ------- -------- --------- --------- -------- ------- ------- -------- --------- ---------
 -20.000  -0.6198   0.08946   0.08627  -0.0088  1.0000  0.0262  -5.9310   0.0000   0.2093
 -19.000  -0.6741   0.07031   0.06681  -0.0133  1.0000  0.0273  -6.2486   0.0000   0.2081
 -18.000  -0.7204   0.05423   0.05043  -0.0165  0.9995  0.0282  -6.4044   0.0000   0.2086
 -17.000  -0.7164   0.03978   0.03558  -0.0293  0.9916  0.0292  -6.2454   0.0000   0.1929
 -16.000  -0.7142   0.02776   0.02323  -0.0385  0.9560  0.0316  -6.0312   0.0000   0.1821
 -15.000  -0.6435   0.02089   0.01601  -0.0542  0.9338  0.0351  -5.4589   0.0000   0.1520
 -14.000  -0.6013   0.01747   0.01217  -0.0557  0.8905  0.0382  -4.9940   0.0000   0.1441
 -13.000  -0.5897   0.01571   0.01015  -0.0453  0.8541  0.0426  -4.6280   0.0000   0.1611
 -12.000  -0.5336   0.01440   0.00857  -0.0440  0.8291  0.0474  -4.1102   0.0000   0.1554
 -11.000  -0.4635   0.01317   0.00715  -0.0458  0.8072  0.0557  -3.5642   0.0000   0.1384
 -10.000  -0.3835   0.01212   0.00600  -0.0497  0.7871  0.0672  -3.0512   0.0000   0.1062
  -9.000  -0.2980   0.01123   0.00500  -0.0549  0.7677  0.0825  -2.5669   0.0000   0.0490
  -8.000  -0.2089   0.01048   0.00417  -0.0610  0.7481  0.1051  -2.1121   0.0000  -0.0637
  -7.000  -0.1172   0.00982   0.00353  -0.0677  0.7288  0.1363  -1.7135   0.0000  -0.3626
  -6.000  -0.0237   0.00929   0.00304  -0.0749  0.7099  0.1767  -1.3617   0.0000  -3.0676
  -5.000   0.0704   0.00885   0.00267  -0.0823  0.6902  0.2292  -1.0597   0.0000   1.4633
  -4.000   0.1651   0.00854   0.00243  -0.0899  0.6690  0.2869  -0.8062   0.0000   0.8098
  -3.000   0.2599   0.00831   0.00233  -0.0975  0.6482  0.3517  -0.7572   0.0000   0.6325
  -2.000   0.3539   0.00818   0.00233  -0.1050  0.6266  0.4188  -0.8329   0.0000   0.5499
  -1.000   0.4463   0.00814   0.00242  -0.1121  0.6036  0.4901  -0.9142   0.0000   0.5017
   0.000   0.5360   0.00818   0.00260  -0.1186  0.5789  0.5649  -1.0019   0.0000   0.4696
   1.000   0.6216   0.00828   0.00289  -0.1240  0.5525  0.6500  -1.0980   0.0000   0.4461
   2.000   0.6989   0.00839   0.00327  -0.1273  0.5234  0.7570  -1.2041   0.0000   0.4271
   3.000   0.8012   0.00871   0.00393  -0.1374  0.4870  0.9625  -1.3655   0.0000   0.4149
   4.000   0.8680   0.00948   0.00460  -0.1386  0.4464  1.0000  -1.5520   0.0000   0.4016
   5.000   0.9015   0.01054   0.00551  -0.1315  0.4009  1.0000  -1.7430   0.0000   0.3862
   6.000   0.9342   0.01211   0.00693  -0.1253  0.3481  1.0000  -1.9666   0.0000   0.3729
   7.000   0.9614   0.01446   0.00908  -0.1191  0.2904  1.0000  -2.2094   0.0000   0.3611
   8.000   0.9874   0.01758   0.01202  -0.1143  0.2308  1.0000  -2.4708   0.0000   0.3513
   9.000   1.0127   0.02148   0.01574  -0.1107  0.1761  1.0000  -2.7591   0.0000   0.3432
  10.000   1.0375   0.02597   0.02011  -0.1083  0.1319  1.0000  -3.0573   0.0000   0.3364
  11.000   1.0612   0.03109   0.02520  -0.1066  0.1016  1.0000  -3.3873   0.0000   0.3308
  12.000   1.0829   0.03672   0.03086  -0.1056  0.0795  1.0000  -3.7178   0.0000   0.3259
  13.000   1.1005   0.04319   0.03742  -0.1049  0.0651  1.0000  -4.0382   0.0000   0.3218
  14.000   1.1131   0.05039   0.04473  -0.1042  0.0538  1.0000  -4.3788   0.0000   0.3182
  15.000   1.1214   0.05840   0.05292  -0.1039  0.0463  1.0000  -4.7067   0.0000   0.3152
  16.000   1.1233   0.06728   0.06200  -0.1035  0.0409  1.0000  -5.0051   0.0000   0.3126
  17.000   1.1170   0.07728   0.07220  -0.1030  0.0363  1.0000  -5.2601   0.0000   0.3106
  18.000   1.1070   0.08803   0.08319  -0.1030  0.0328  1.0000  -5.4854   0.0000   0.3092
  19.000   1.0978   0.09934   0.09473  -0.1044  0.0295  1.0000  -5.6997   0.0000   0.3091
  20.000   1.0818   0.11264   0.10824  -0.1075  0.0267  1.0000  -5.8581   0.0000   0.3110


