xflr5 v6.49

 Calculated polar for: Aerofoil66

 1 1 Reynolds number fixed          Mach number fixed         

 xtrf =   1.000 (top)        1.000 (bottom)
 Mach =   0.000     Re =     0.500 e 6     Ncrit =   5.000

  alpha     CL        CD       CDp       Cm    Top Xtr Bot Xtr   Cpmin    Chinge    XCp    
 ------- -------- --------- --------- -------- ------- ------- -------- --------- ---------
 -20.000  -0.3891   0.18247   0.18000   0.0213  1.0000  0.0088  -1.8688   0.0000   0.2686
 -18.000  -0.3467   0.16015   0.15771   0.0079  1.0000  0.0094  -1.9824   0.0000   0.2393
 -17.000  -0.3298   0.14825   0.14583   0.0022  1.0000  0.0092  -2.1448   0.0000   0.2245
 -16.000  -0.3257   0.13286   0.13048  -0.0029  1.0000  0.0103  -2.7673   0.0000   0.2111
 -14.000  -0.4839   0.06988   0.06748  -0.0147  0.9989  0.0133  -6.4239   0.0000   0.2010
 -13.000  -0.5926   0.03161   0.02832  -0.0384  0.9721  0.0128  -8.0736   0.0000   0.1719
 -12.000  -0.5670   0.02242   0.01845  -0.0492  0.9305  0.0140  -7.5548   0.0000   0.1513
 -11.000  -0.5258   0.01882   0.01419  -0.0489  0.8875  0.0150  -6.7799   0.0000   0.1458
 -10.000  -0.4657   0.01574   0.01066  -0.0510  0.8573  0.0171  -5.8987   0.0000   0.1297
  -9.000  -0.3847   0.01385   0.00838  -0.0566  0.8322  0.0200  -5.0343   0.0000   0.0917
  -8.000  -0.2971   0.01225   0.00648  -0.0635  0.8087  0.0247  -4.1748   0.0000   0.0241
  -7.000  -0.2044   0.01098   0.00498  -0.0714  0.7877  0.0312  -3.3483   0.0000  -0.1142
  -6.000  -0.1085   0.01004   0.00388  -0.0798  0.7675  0.0438  -2.5618   0.0000  -0.5091
  -5.000  -0.0111   0.00929   0.00302  -0.0886  0.7469  0.0671  -1.9317   0.0000  -7.8933
  -4.000   0.0870   0.00862   0.00239  -0.0976  0.7255  0.1209  -1.3606   0.0000   1.3909
  -3.000   0.1858   0.00798   0.00200  -0.1069  0.7055  0.2243  -0.9106   0.0000   0.8316
  -2.000   0.2848   0.00749   0.00180  -0.1162  0.6855  0.3644  -0.6709   0.0000   0.6604
  -1.000   0.3836   0.00726   0.00178  -0.1253  0.6646  0.4931  -0.7404   0.0000   0.5769
   0.000   0.4815   0.00720   0.00188  -0.1340  0.6422  0.5950  -0.8143   0.0000   0.5272
   1.000   0.5787   0.00724   0.00209  -0.1424  0.6199  0.6797  -0.8933   0.0000   0.4939
   2.000   0.6738   0.00736   0.00240  -0.1503  0.5965  0.7555  -0.9779   0.0000   0.4699
   3.000   0.7640   0.00750   0.00276  -0.1567  0.5712  0.8407  -1.0696   0.0000   0.4511
   4.000   0.8551   0.00770   0.00314  -0.1635  0.5416  1.0000  -1.2962   0.0000   0.4361
   5.000   0.9343   0.00855   0.00374  -0.1676  0.4639  1.0000  -1.7232   0.0000   0.4233
   6.000   0.9930   0.00999   0.00478  -0.1667  0.3583  1.0000  -2.1888   0.0000   0.4107
   7.000   1.0025   0.01249   0.00667  -0.1541  0.2154  1.0000  -2.5524   0.0000   0.3956
   8.000   1.0077   0.01589   0.00954  -0.1426  0.0977  1.0000  -2.9104   0.0000   0.3824
   9.000   1.0332   0.01910   0.01264  -0.1371  0.0534  1.0000  -3.4023   0.0000   0.3724
  10.000   1.0636   0.02259   0.01616  -0.1336  0.0346  1.0000  -3.9671   0.0000   0.3641
  11.000   1.0937   0.02661   0.02033  -0.1311  0.0261  1.0000  -4.5525   0.0000   0.3571
  12.000   1.1176   0.03164   0.02552  -0.1288  0.0206  1.0000  -5.1234   0.0000   0.3511
  13.000   1.1425   0.03723   0.03133  -0.1277  0.0170  1.0000  -5.7207   0.0000   0.3462
  14.000   1.1570   0.04455   0.03891  -0.1267  0.0147  1.0000  -6.2485   0.0000   0.3424
  15.000   1.1720   0.05270   0.04737  -0.1270  0.0131  1.0000  -6.8809   0.0000   0.3396
  16.000   1.1823   0.06229   0.05727  -0.1283  0.0117  1.0000  -7.4863   0.0000   0.3380
  17.000   1.1784   0.07489   0.07019  -0.1302  0.0105  1.0000  -7.9463   0.0000   0.3382
  18.000   1.1773   0.08811   0.08381  -0.1339  0.0098  1.0000  -8.4171   0.0000   0.3394
  19.000   1.1728   0.10262   0.09873  -0.1390  0.0090  1.0000  -8.8322   0.0000   0.3421
  20.000   1.1600   0.11896   0.11547  -0.1454  0.0083  1.0000  -9.1007   0.0000   0.3467


