xflr5 v6.49

 Calculated polar for: Aerofoil94

 1 1 Reynolds number fixed          Mach number fixed         

 xtrf =   1.000 (top)        1.000 (bottom)
 Mach =   0.000     Re =     0.500 e 6     Ncrit =   5.000

  alpha     CL        CD       CDp       Cm    Top Xtr Bot Xtr   Cpmin    Chinge    XCp    
 ------- -------- --------- --------- -------- ------- ------- -------- --------- ---------
 -20.000  -0.4499   0.17558   0.17311   0.0373  1.0000  0.0089  -2.0412   0.0000   0.3049
 -19.000  -0.4301   0.16356   0.16110   0.0303  1.0000  0.0094  -2.1373   0.0000   0.2940
 -18.000  -0.4146   0.15054   0.14808   0.0237  1.0000  0.0093  -2.3350   0.0000   0.2826
 -17.000  -0.4126   0.13353   0.13110   0.0173  1.0000  0.0106  -3.0349   0.0000   0.2697
 -15.000  -0.7570   0.03759   0.03432  -0.0030  1.0000  0.0115  -9.0994   0.0000   0.2364
 -14.000  -0.8031   0.02754   0.02378   0.0028  1.0000  0.0118  -9.0682   0.0000   0.2458
 -13.000  -0.7907   0.02324   0.01905   0.0091  0.9888  0.0128  -8.4184   0.0000   0.2547
 -12.000  -0.7140   0.01961   0.01491   0.0025  0.9596  0.0148  -7.3233   0.0000   0.2472
 -11.000  -0.6344   0.01624   0.01107  -0.0034  0.9299  0.0168  -6.2871   0.0000   0.2386
 -10.000  -0.5601   0.01436   0.00883  -0.0063  0.8975  0.0196  -5.2996   0.0000   0.2329
  -9.000  -0.4844   0.01274   0.00690  -0.0092  0.8696  0.0236  -4.4885   0.0000   0.2253
  -8.000  -0.4017   0.01154   0.00546  -0.0137  0.8449  0.0300  -3.6759   0.0000   0.2100
  -7.000  -0.3154   0.01051   0.00427  -0.0191  0.8215  0.0406  -2.9051   0.0000   0.1832
  -6.000  -0.2262   0.00969   0.00336  -0.0251  0.7988  0.0602  -2.2214   0.0000   0.1312
  -5.000  -0.1356   0.00898   0.00266  -0.0316  0.7758  0.0991  -1.6434   0.0000   0.0057
  -4.000  -0.0443   0.00834   0.00214  -0.0384  0.7520  0.1718  -1.1612   0.0000  -0.6449
  -3.000   0.0471   0.00774   0.00181  -0.0453  0.7280  0.2834  -0.7779   0.0000   1.2309
  -2.000   0.1369   0.00714   0.00162  -0.0518  0.7028  0.4471  -0.5052   0.0000   0.6329
  -1.000   0.2187   0.00630   0.00158  -0.0559  0.6761  0.7234  -0.5672   0.0000   0.5068
   0.000   0.3525   0.00627   0.00193  -0.0739  0.6461  0.9302  -0.6681   0.0000   0.4588
   1.000   0.4693   0.00672   0.00226  -0.0876  0.6108  0.9628  -0.7798   0.0000   0.4345
   2.000   0.5950   0.00713   0.00254  -0.1042  0.5597  0.9823  -1.0029   0.0000   0.4220
   3.000   0.7159   0.00791   0.00301  -0.1199  0.4590  0.9984  -1.4232   0.0000   0.4132
   4.000   0.7827   0.00920   0.00379  -0.1211  0.3231  1.0000  -1.8495   0.0000   0.3994
   5.000   0.8259   0.01106   0.00502  -0.1164  0.1785  1.0000  -2.2762   0.0000   0.3846
   6.000   0.8647   0.01285   0.00646  -0.1107  0.0917  1.0000  -2.7667   0.0000   0.3706
   7.000   0.8930   0.01445   0.00795  -0.1024  0.0549  1.0000  -3.2471   0.0000   0.3561
   8.000   0.9310   0.01635   0.00990  -0.0978  0.0374  1.0000  -3.8156   0.0000   0.3453
   9.000   0.9688   0.01878   0.01241  -0.0944  0.0273  1.0000  -4.4690   0.0000   0.3364
  10.000   1.0055   0.02173   0.01555  -0.0919  0.0220  1.0000  -5.1456   0.0000   0.3290
  11.000   1.0366   0.02550   0.01955  -0.0896  0.0185  1.0000  -5.8091   0.0000   0.3226
  12.000   1.0594   0.03037   0.02461  -0.0873  0.0152  1.0000  -6.4442   0.0000   0.3171
  13.000   1.0769   0.03629   0.03086  -0.0857  0.0138  1.0000  -7.0403   0.0000   0.3126
  14.000   1.0876   0.04361   0.03851  -0.0847  0.0125  1.0000  -7.5903   0.0000   0.3093
  15.000   1.0890   0.05282   0.04806  -0.0846  0.0114  1.0000  -8.1085   0.0000   0.3072
  16.000   1.0744   0.06514   0.06073  -0.0850  0.0105  1.0000  -8.4865   0.0000   0.3067
  17.000   1.0438   0.08101   0.07701  -0.0865  0.0099  1.0000  -8.6324   0.0000   0.3084
  18.000   1.0136   0.09833   0.09477  -0.0900  0.0097  1.0000  -8.7118   0.0000   0.3122
  19.000   0.9723   0.11898   0.11587  -0.0953  0.0095  1.0000  -8.5191   0.0000   0.3193
  20.000   0.9167   0.14497   0.14231  -0.1036  0.0093  1.0000  -7.8419   0.0000   0.3322


