xflr5 v6.49

 Calculated polar for: Aerofoil35

 1 1 Reynolds number fixed          Mach number fixed         

 xtrf =   1.000 (top)        1.000 (bottom)
 Mach =   0.000     Re =     0.500 e 6     Ncrit =   5.000

  alpha     CL        CD       CDp       Cm    Top Xtr Bot Xtr   Cpmin    Chinge    XCp    
 ------- -------- --------- --------- -------- ------- ------- -------- --------- ---------
 -20.000  -0.3944   0.17510   0.17267   0.0126  1.0000  0.0092  -2.2005   0.0000   0.2394
 -19.000  -0.3930   0.16048   0.15808   0.0082  0.9999  0.0103  -2.8182   0.0000   0.2317
 -18.000  -0.3580   0.14877   0.14635  -0.0036  0.9976  0.0112  -2.6819   0.0000   0.2012
 -17.000  -0.5607   0.08398   0.08122  -0.0153  0.9951  0.0145  -6.8456   0.0000   0.1975
 -16.000  -0.6460   0.05386   0.05053  -0.0277  0.9885  0.0145  -7.8296   0.0000   0.1870
 -15.000  -0.6641   0.03684   0.03295  -0.0396  0.9770  0.0150  -7.8187   0.0000   0.1733
 -14.000  -0.6729   0.02693   0.02255  -0.0419  0.9591  0.0156  -7.5288   0.0000   0.1731
 -13.000  -0.6342   0.02129   0.01652  -0.0465  0.9469  0.0173  -6.8299   0.0000   0.1633
 -12.000  -0.5857   0.01829   0.01317  -0.0472  0.9291  0.0193  -6.0810   0.0000   0.1567
 -11.000  -0.4992   0.01558   0.01008  -0.0561  0.9171  0.0221  -5.2372   0.0000   0.1247
 -10.000  -0.4478   0.01409   0.00837  -0.0540  0.8940  0.0265  -4.5608   0.0000   0.1170
  -9.000  -0.3855   0.01276   0.00684  -0.0541  0.8740  0.0316  -3.8788   0.0000   0.0972
  -8.000  -0.3100   0.01167   0.00556  -0.0574  0.8569  0.0402  -3.1745   0.0000   0.0516
  -7.000  -0.2318   0.01078   0.00453  -0.0612  0.8386  0.0549  -2.5616   0.0000  -0.0290
  -6.000  -0.1526   0.00999   0.00376  -0.0651  0.8211  0.0817  -2.0143   0.0000  -0.1961
  -5.000  -0.0676   0.00926   0.00307  -0.0707  0.8044  0.1323  -1.5193   0.0000  -0.8312
  -4.000   0.0143   0.00860   0.00260  -0.0753  0.7865  0.2137  -1.1122   0.0000   5.6593
  -3.000   0.0976   0.00801   0.00229  -0.0804  0.7692  0.3261  -0.7864   0.0000   1.0881
  -2.000   0.1826   0.00752   0.00207  -0.0858  0.7505  0.4543  -0.6014   0.0000   0.7246
  -1.000   0.2621   0.00714   0.00203  -0.0895  0.7311  0.5853  -0.6501   0.0000   0.5928
   0.000   0.3410   0.00684   0.00210  -0.0929  0.7113  0.7217  -0.7026   0.0000   0.5217
   1.000   0.4276   0.00674   0.00234  -0.0982  0.6902  0.8573  -0.7643   0.0000   0.4775
   2.000   0.5564   0.00714   0.00281  -0.1156  0.6667  0.9276  -0.8574   0.0000   0.4545
   3.000   0.6779   0.00767   0.00336  -0.1312  0.6379  0.9537  -1.0022   0.0000   0.4392
   4.000   0.7595   0.00828   0.00383  -0.1357  0.5756  0.9857  -1.3090   0.0000   0.4234
   5.000   0.8263   0.00945   0.00465  -0.1370  0.4707  1.0000  -1.6746   0.0000   0.4095
   6.000   0.8208   0.01120   0.00595  -0.1195  0.3571  1.0000  -1.9259   0.0000   0.3881
   7.000   0.8248   0.01415   0.00827  -0.1064  0.2097  1.0000  -2.2082   0.0000   0.3705
   8.000   0.8478   0.01718   0.01087  -0.0993  0.1089  1.0000  -2.5917   0.0000   0.3574
   9.000   0.8837   0.02004   0.01356  -0.0958  0.0636  1.0000  -3.0536   0.0000   0.3475
  10.000   0.9232   0.02300   0.01655  -0.0938  0.0440  1.0000  -3.5510   0.0000   0.3394
  11.000   0.9617   0.02631   0.01995  -0.0922  0.0328  1.0000  -4.1040   0.0000   0.3325
  12.000   0.9958   0.03025   0.02404  -0.0906  0.0264  1.0000  -4.6960   0.0000   0.3263
  13.000   1.0253   0.03486   0.02881  -0.0892  0.0219  1.0000  -5.2843   0.0000   0.3208
  14.000   1.0506   0.04023   0.03444  -0.0880  0.0191  1.0000  -5.8626   0.0000   0.3160
  15.000   1.0705   0.04649   0.04090  -0.0871  0.0164  1.0000  -6.4318   0.0000   0.3120
  16.000   1.0778   0.05459   0.04930  -0.0858  0.0148  1.0000  -6.9054   0.0000   0.3086
  17.000   1.0845   0.06335   0.05840  -0.0857  0.0136  1.0000  -7.3745   0.0000   0.3062
  18.000   1.0817   0.07393   0.06932  -0.0862  0.0126  1.0000  -7.7635   0.0000   0.3049
  19.000   1.0695   0.08656   0.08230  -0.0876  0.0118  1.0000  -8.1125   0.0000   0.3050
  20.000   1.0468   0.10155   0.09765  -0.0902  0.0111  1.0000  -8.3215   0.0000   0.3070


