xflr5 v6.49

 Calculated polar for: Aerofoil79

 1 1 Reynolds number fixed          Mach number fixed         

 xtrf =   1.000 (top)        1.000 (bottom)
 Mach =   0.000     Re =     0.500 e 6     Ncrit =   5.000

  alpha     CL        CD       CDp       Cm    Top Xtr Bot Xtr   Cpmin    Chinge    XCp    
 ------- -------- --------- --------- -------- ------- ------- -------- --------- ---------
 -19.000  -0.5667   0.10839   0.10569   0.0014  1.0000  0.0152  -6.1942   0.0000   0.2243
 -18.000  -0.6571   0.08057   0.07745  -0.0035  1.0000  0.0153  -7.1854   0.0000   0.2220
 -17.000  -0.7120   0.05863   0.05511  -0.0116  0.9981  0.0158  -7.6065   0.0000   0.2148
 -16.000  -0.7346   0.04118   0.03722  -0.0225  0.9913  0.0167  -7.6153   0.0000   0.2033
 -15.000  -0.7189   0.03002   0.02567  -0.0330  0.9760  0.0179  -7.1951   0.0000   0.1899
 -14.000  -0.6962   0.02341   0.01868  -0.0365  0.9556  0.0194  -6.6387   0.0000   0.1849
 -13.000  -0.6253   0.01917   0.01405  -0.0463  0.9453  0.0214  -5.8755   0.0000   0.1636
 -12.000  -0.5713   0.01616   0.01076  -0.0484  0.9225  0.0253  -5.2129   0.0000   0.1535
 -11.000  -0.5230   0.01459   0.00889  -0.0459  0.8970  0.0292  -4.5801   0.0000   0.1509
 -10.000  -0.4629   0.01320   0.00731  -0.0458  0.8765  0.0355  -3.9245   0.0000   0.1400
  -9.000  -0.3894   0.01205   0.00597  -0.0486  0.8582  0.0454  -3.2470   0.0000   0.1137
  -8.000  -0.3119   0.01102   0.00488  -0.0523  0.8398  0.0619  -2.6691   0.0000   0.0699
  -7.000  -0.2291   0.01016   0.00400  -0.0573  0.8239  0.0919  -2.1176   0.0000  -0.0146
  -6.000  -0.1422   0.00935   0.00324  -0.0633  0.8070  0.1434  -1.6351   0.0000  -0.2148
  -5.000  -0.0560   0.00863   0.00273  -0.0691  0.7901  0.2197  -1.2274   0.0000  -1.0254
  -4.000   0.0341   0.00808   0.00234  -0.0759  0.7738  0.3091  -0.8925   0.0000   2.5294
  -3.000   0.1248   0.00766   0.00211  -0.0827  0.7561  0.3994  -0.6339   0.0000   0.9247
  -2.000   0.2158   0.00739   0.00204  -0.0897  0.7386  0.4833  -0.6119   0.0000   0.6697
  -1.000   0.3080   0.00723   0.00202  -0.0968  0.7200  0.5619  -0.6684   0.0000   0.5654
   0.000   0.3976   0.00712   0.00211  -0.1032  0.6994  0.6414  -0.7280   0.0000   0.5088
   1.000   0.4847   0.00708   0.00231  -0.1090  0.6775  0.7226  -0.7927   0.0000   0.4725
   2.000   0.5674   0.00707   0.00259  -0.1134  0.6522  0.8173  -0.8659   0.0000   0.4463
   3.000   0.6587   0.00733   0.00303  -0.1201  0.6090  0.9286  -1.1245   0.0000   0.4276
   4.000   0.7565   0.00837   0.00377  -0.1295  0.5097  0.9927  -1.4997   0.0000   0.4154
   5.000   0.7825   0.00995   0.00487  -0.1201  0.3862  1.0000  -1.7849   0.0000   0.3966
   6.000   0.7852   0.01252   0.00680  -0.1062  0.2358  1.0000  -2.0541   0.0000   0.3771
   7.000   0.8089   0.01528   0.00910  -0.0988  0.1283  1.0000  -2.3944   0.0000   0.3628
   8.000   0.8471   0.01783   0.01145  -0.0954  0.0776  1.0000  -2.8220   0.0000   0.3521
   9.000   0.8892   0.02051   0.01410  -0.0937  0.0523  1.0000  -3.3149   0.0000   0.3435
  10.000   0.9318   0.02343   0.01709  -0.0926  0.0397  1.0000  -3.8309   0.0000   0.3362
  11.000   0.9709   0.02685   0.02061  -0.0916  0.0312  1.0000  -4.3538   0.0000   0.3298
  12.000   1.0055   0.03089   0.02479  -0.0906  0.0260  1.0000  -4.9365   0.0000   0.3241
  13.000   1.0347   0.03566   0.02975  -0.0896  0.0222  1.0000  -5.5223   0.0000   0.3191
  14.000   1.0563   0.04152   0.03585  -0.0884  0.0198  1.0000  -6.0714   0.0000   0.3146
  15.000   1.0764   0.04791   0.04251  -0.0880  0.0176  1.0000  -6.6312   0.0000   0.3110
  16.000   1.0836   0.05617   0.05100  -0.0874  0.0155  1.0000  -7.1110   0.0000   0.3081
  17.000   1.0814   0.06614   0.06129  -0.0872  0.0145  1.0000  -7.5017   0.0000   0.3061
  18.000   1.0744   0.07733   0.07285  -0.0878  0.0137  1.0000  -7.8426   0.0000   0.3052
  19.000   1.0561   0.09083   0.08674  -0.0894  0.0129  1.0000  -8.0564   0.0000   0.3059
  20.000   1.0291   0.10636   0.10264  -0.0922  0.0123  1.0000  -8.1383   0.0000   0.3086


