xflr5 v6.49

 Calculated polar for: Aerofoil11

 1 1 Reynolds number fixed          Mach number fixed         

 xtrf =   1.000 (top)        1.000 (bottom)
 Mach =   0.000     Re =     0.500 e 6     Ncrit =   5.000

  alpha     CL        CD       CDp       Cm    Top Xtr Bot Xtr   Cpmin    Chinge    XCp    
 ------- -------- --------- --------- -------- ------- ------- -------- --------- ---------
 -18.000  -0.6500   0.08001   0.07686  -0.0073  1.0000  0.0177  -6.9286   0.0000   0.2114
 -17.000  -0.7181   0.05948   0.05595  -0.0104  1.0000  0.0181  -7.3729   0.0000   0.2124
 -16.000  -0.7355   0.04311   0.03915  -0.0203  0.9960  0.0189  -7.3527   0.0000   0.2021
 -15.000  -0.7229   0.03224   0.02787  -0.0289  0.9705  0.0201  -7.0264   0.0000   0.1918
 -14.000  -0.6783   0.02517   0.02037  -0.0385  0.9497  0.0214  -6.4635   0.0000   0.1763
 -13.000  -0.6093   0.01997   0.01487  -0.0503  0.9280  0.0249  -5.7604   0.0000   0.1512
 -12.000  -0.5651   0.01737   0.01187  -0.0505  0.8931  0.0277  -5.1597   0.0000   0.1452
 -11.000  -0.5429   0.01542   0.00963  -0.0430  0.8630  0.0309  -4.6696   0.0000   0.1567
 -10.000  -0.5058   0.01413   0.00812  -0.0374  0.8407  0.0352  -4.1199   0.0000   0.1627
  -9.000  -0.4552   0.01305   0.00690  -0.0347  0.8217  0.0424  -3.5804   0.0000   0.1609
  -8.000  -0.3863   0.01206   0.00574  -0.0363  0.8042  0.0527  -3.0302   0.0000   0.1430
  -7.000  -0.3097   0.01118   0.00479  -0.0399  0.7880  0.0698  -2.4844   0.0000   0.1076
  -6.000  -0.2284   0.01038   0.00400  -0.0445  0.7725  0.0982  -1.9950   0.0000   0.0397
  -5.000  -0.1443   0.00964   0.00332  -0.0499  0.7556  0.1473  -1.5561   0.0000  -0.1151
  -4.000  -0.0587   0.00894   0.00284  -0.0557  0.7404  0.2247  -1.1870   0.0000  -0.7351
  -3.000   0.0286   0.00834   0.00244  -0.0618  0.7237  0.3285  -0.8751   0.0000   2.4687
  -2.000   0.1155   0.00780   0.00225  -0.0678  0.7071  0.4448  -0.6309   0.0000   0.8456
  -1.000   0.2043   0.00747   0.00217  -0.0742  0.6902  0.5555  -0.6733   0.0000   0.6147
   0.000   0.2933   0.00729   0.00217  -0.0804  0.6711  0.6523  -0.7347   0.0000   0.5231
   1.000   0.3814   0.00719   0.00233  -0.0864  0.6517  0.7363  -0.8008   0.0000   0.4737
   2.000   0.4687   0.00723   0.00255  -0.0920  0.6307  0.8103  -0.8730   0.0000   0.4424
   3.000   0.5555   0.00740   0.00287  -0.0975  0.6069  0.8777  -0.9556   0.0000   0.4206
   4.000   0.6531   0.00780   0.00335  -0.1062  0.5765  0.9318  -1.0948   0.0000   0.4067
   5.000   0.7543   0.00859   0.00405  -0.1163  0.5205  0.9629  -1.3886   0.0000   0.3974
   6.000   0.8318   0.00988   0.00505  -0.1210  0.4353  0.9969  -1.7321   0.0000   0.3876
   7.000   0.8457   0.01178   0.00661  -0.1098  0.3419  1.0000  -1.9869   0.0000   0.3709
   8.000   0.8506   0.01472   0.00911  -0.0980  0.2364  1.0000  -2.2471   0.0000   0.3551
   9.000   0.8672   0.01815   0.01218  -0.0906  0.1487  1.0000  -2.5560   0.0000   0.3431
  10.000   0.8950   0.02165   0.01550  -0.0866  0.0948  1.0000  -2.9146   0.0000   0.3341
  11.000   0.9267   0.02535   0.01913  -0.0841  0.0657  1.0000  -3.3408   0.0000   0.3269
  12.000   0.9603   0.02933   0.02317  -0.0828  0.0495  1.0000  -3.7897   0.0000   0.3210
  13.000   0.9914   0.03382   0.02776  -0.0819  0.0395  1.0000  -4.2431   0.0000   0.3160
  14.000   1.0189   0.03898   0.03307  -0.0812  0.0323  1.0000  -4.7047   0.0000   0.3116
  15.000   1.0385   0.04527   0.03951  -0.0804  0.0275  1.0000  -5.1841   0.0000   0.3078
  16.000   1.0572   0.05206   0.04654  -0.0803  0.0243  1.0000  -5.6685   0.0000   0.3047
  17.000   1.0622   0.06077   0.05547  -0.0800  0.0215  1.0000  -6.0746   0.0000   0.3022
  18.000   1.0682   0.06988   0.06487  -0.0806  0.0197  1.0000  -6.4842   0.0000   0.3005
  19.000   1.0670   0.08032   0.07560  -0.0817  0.0179  1.0000  -6.8442   0.0000   0.2997
  20.000   1.0548   0.09279   0.08834  -0.0834  0.0164  1.0000  -7.1061   0.0000   0.3000


