xflr5 v6.49

 Calculated polar for: Aerofoil10

 1 1 Reynolds number fixed          Mach number fixed         

 xtrf =   1.000 (top)        1.000 (bottom)
 Mach =   0.000     Re =     0.500 e 6     Ncrit =   5.000

  alpha     CL        CD       CDp       Cm    Top Xtr Bot Xtr   Cpmin    Chinge    XCp    
 ------- -------- --------- --------- -------- ------- ------- -------- --------- ---------
 -20.000  -0.4070   0.17567   0.17320   0.0132  0.9978  0.0101  -2.6319   0.0000   0.2389
 -19.000  -0.3763   0.16547   0.16299   0.0034  0.9954  0.0110  -2.4952   0.0000   0.2166
 -18.000  -0.3489   0.15341   0.15091  -0.0063  0.9922  0.0120  -2.5005   0.0000   0.1902
 -17.000  -0.5797   0.08323   0.08027  -0.0176  0.9886  0.0159  -6.8515   0.0000   0.1930
 -16.000  -0.6526   0.05699   0.05355  -0.0277  0.9827  0.0162  -7.5699   0.0000   0.1858
 -15.000  -0.6778   0.03944   0.03552  -0.0389  0.9761  0.0168  -7.6173   0.0000   0.1740
 -14.000  -0.6871   0.02952   0.02520  -0.0413  0.9646  0.0177  -7.3644   0.0000   0.1738
 -13.000  -0.6641   0.02359   0.01889  -0.0437  0.9518  0.0191  -6.8640   0.0000   0.1697
 -12.000  -0.6063   0.01991   0.01482  -0.0488  0.9449  0.0209  -6.1539   0.0000   0.1558
 -11.000  -0.5892   0.01748   0.01214  -0.0395  0.9247  0.0232  -5.6379   0.0000   0.1705
 -10.000  -0.4974   0.01534   0.00976  -0.0484  0.9183  0.0275  -4.7774   0.0000   0.1401
  -9.000  -0.4419   0.01378   0.00804  -0.0468  0.9000  0.0320  -4.1244   0.0000   0.1318
  -8.000  -0.3339   0.01221   0.00632  -0.0592  0.8920  0.0412  -3.3170   0.0000   0.0591
  -7.000  -0.2610   0.01121   0.00523  -0.0615  0.8738  0.0529  -2.7492   0.0000  -0.0003
  -6.000  -0.1385   0.01010   0.00407  -0.0775  0.8631  0.0790  -2.0679   0.0000  -0.3325
  -5.000  -0.0588   0.00933   0.00337  -0.0815  0.8422  0.1196  -1.6121   0.0000  -1.1791
  -4.000   0.0330   0.00860   0.00278  -0.0889  0.8223  0.1903  -1.1885   0.0000   3.0014
  -3.000   0.1268   0.00794   0.00236  -0.0968  0.8004  0.2959  -0.8430   0.0000   1.0246
  -2.000   0.2160   0.00746   0.00210  -0.1033  0.7756  0.4133  -0.6054   0.0000   0.7321
  -1.000   0.2997   0.00717   0.00202  -0.1081  0.7484  0.5238  -0.6622   0.0000   0.6115
   0.000   0.3744   0.00703   0.00204  -0.1102  0.7191  0.6186  -0.7197   0.0000   0.5434
   1.000   0.4480   0.00700   0.00218  -0.1121  0.6879  0.7048  -0.7829   0.0000   0.4977
   3.000   0.5887   0.00734   0.00284  -0.1139  0.6166  0.8934  -0.9367   0.0000   0.4387
   4.000   0.7199   0.00813   0.00361  -0.1323  0.5669  0.9883  -1.1378   0.0000   0.4283
   5.000   0.7830   0.00910   0.00435  -0.1323  0.4986  1.0000  -1.4002   0.0000   0.4124
   6.000   0.8153   0.01038   0.00535  -0.1243  0.4151  1.0000  -1.6701   0.0000   0.3950
   7.000   0.8454   0.01229   0.00686  -0.1168  0.3170  1.0000  -1.9751   0.0000   0.3796
   8.000   0.8740   0.01483   0.00898  -0.1101  0.2081  1.0000  -2.3196   0.0000   0.3663
   9.000   0.9049   0.01778   0.01156  -0.1049  0.1221  1.0000  -2.6984   0.0000   0.3552
  11.000   0.9781   0.02409   0.01773  -0.0995  0.0524  1.0000  -3.6251   0.0000   0.3386
  12.000   1.0135   0.02783   0.02156  -0.0978  0.0394  1.0000  -4.1103   0.0000   0.3320
  13.000   1.0445   0.03219   0.02605  -0.0962  0.0310  1.0000  -4.6600   0.0000   0.3263
  14.000   1.0688   0.03752   0.03159  -0.0946  0.0262  1.0000  -5.1913   0.0000   0.3212
  15.000   1.0872   0.04377   0.03804  -0.0932  0.0224  1.0000  -5.7044   0.0000   0.3169
  16.000   1.0979   0.05134   0.04588  -0.0921  0.0199  1.0000  -6.1741   0.0000   0.3134
  17.000   1.1045   0.05981   0.05464  -0.0917  0.0176  1.0000  -6.6264   0.0000   0.3108
  18.000   1.0972   0.07055   0.06565  -0.0914  0.0158  1.0000  -6.9709   0.0000   0.3092
  19.000   1.0816   0.08293   0.07837  -0.0918  0.0148  1.0000  -7.2252   0.0000   0.3087
  20.000   1.0657   0.09590   0.09171  -0.0935  0.0140  1.0000  -7.4498   0.0000   0.3095


