xflr5 v6.49

 Calculated polar for: Aerofoil6

 1 1 Reynolds number fixed          Mach number fixed         

 xtrf =   1.000 (top)        1.000 (bottom)
 Mach =   0.000     Re =     0.500 e 6     Ncrit =   5.000

  alpha     CL        CD       CDp       Cm    Top Xtr Bot Xtr   Cpmin    Chinge    XCp    
 ------- -------- --------- --------- -------- ------- ------- -------- --------- ---------
 -20.000  -0.3773   0.16930   0.16683   0.0140  1.0000  0.0094  -2.1112   0.0000   0.2471
 -19.000  -0.3671   0.15430   0.15185   0.0072  1.0000  0.0101  -2.6651   0.0000   0.2322
 -18.000  -0.3501   0.14353   0.14111   0.0012  1.0000  0.0111  -2.6745   0.0000   0.2178
 -16.000  -0.6518   0.05404   0.05097  -0.0142  1.0000  0.0139  -7.9282   0.0000   0.2113
 -15.000  -0.6871   0.03566   0.03203  -0.0244  0.9951  0.0144  -8.0949   0.0000   0.2006
 -14.000  -0.6586   0.02600   0.02180  -0.0355  0.9558  0.0152  -7.5580   0.0000   0.1839
 -13.000  -0.6199   0.02004   0.01528  -0.0406  0.9110  0.0166  -6.8873   0.0000   0.1732
 -12.000  -0.6089   0.01787   0.01271  -0.0306  0.8693  0.0180  -6.2948   0.0000   0.1895
 -11.000  -0.5600   0.01601   0.01049  -0.0284  0.8431  0.0202  -5.6045   0.0000   0.1896
 -10.000  -0.4951   0.01423   0.00841  -0.0297  0.8226  0.0234  -4.8645   0.0000   0.1805
  -9.000  -0.4168   0.01298   0.00689  -0.0338  0.8036  0.0282  -4.0817   0.0000   0.1592
  -8.000  -0.3342   0.01173   0.00546  -0.0388  0.7844  0.0355  -3.3352   0.0000   0.1233
  -7.000  -0.2463   0.01076   0.00438  -0.0451  0.7677  0.0484  -2.6434   0.0000   0.0545
  -6.000  -0.1557   0.00996   0.00351  -0.0520  0.7500  0.0722  -2.0540   0.0000  -0.1007
  -5.000  -0.0633   0.00921   0.00285  -0.0594  0.7322  0.1208  -1.5179   0.0000  -0.7231
  -4.000   0.0295   0.00850   0.00236  -0.0671  0.7152  0.2145  -1.0811   0.0000   2.5860
  -3.000   0.1222   0.00782   0.00202  -0.0747  0.6967  0.3591  -0.7336   0.0000   0.8727
  -2.000   0.2157   0.00731   0.00191  -0.0825  0.6789  0.5105  -0.6574   0.0000   0.6364
  -1.000   0.3099   0.00707   0.00194  -0.0903  0.6605  0.6335  -0.7229   0.0000   0.5422
   0.000   0.4036   0.00701   0.00205  -0.0978  0.6401  0.7296  -0.7930   0.0000   0.4913
   1.000   0.4959   0.00702   0.00225  -0.1049  0.6189  0.8116  -0.8679   0.0000   0.4592
   2.000   0.5861   0.00714   0.00255  -0.1114  0.5965  0.8889  -0.9493   0.0000   0.4365
   3.000   0.6951   0.00745   0.00296  -0.1233  0.5703  0.9545  -1.0563   0.0000   0.4227
   4.000   0.8113   0.00796   0.00342  -0.1377  0.5301  0.9938  -1.4127   0.0000   0.4140
   5.000   0.8699   0.00893   0.00409  -0.1367  0.4406  1.0000  -1.7824   0.0000   0.4003
   6.000   0.8790   0.01029   0.00513  -0.1229  0.3513  1.0000  -2.0772   0.0000   0.3818
   7.000   0.8759   0.01299   0.00734  -0.1084  0.2301  1.0000  -2.3568   0.0000   0.3645
   8.000   0.8816   0.01648   0.01038  -0.0982  0.1244  1.0000  -2.6975   0.0000   0.3509
   9.000   0.9029   0.01997   0.01368  -0.0928  0.0692  1.0000  -3.1057   0.0000   0.3408
  10.000   0.9334   0.02347   0.01718  -0.0900  0.0464  1.0000  -3.5636   0.0000   0.3332
  11.000   0.9629   0.02746   0.02124  -0.0880  0.0337  1.0000  -4.0965   0.0000   0.3267
  12.000   0.9901   0.03208   0.02601  -0.0866  0.0267  1.0000  -4.6449   0.0000   0.3213
  13.000   1.0141   0.03735   0.03145  -0.0855  0.0223  1.0000  -5.1927   0.0000   0.3166
  14.000   1.0321   0.04364   0.03799  -0.0847  0.0191  1.0000  -5.7146   0.0000   0.3127
  15.000   1.0476   0.05065   0.04520  -0.0845  0.0164  1.0000  -6.2374   0.0000   0.3096
  16.000   1.0502   0.05973   0.05455  -0.0843  0.0147  1.0000  -6.6573   0.0000   0.3074
  17.000   1.0552   0.06937   0.06452  -0.0856  0.0135  1.0000  -7.0895   0.0000   0.3063
  18.000   1.0542   0.08063   0.07610  -0.0879  0.0124  1.0000  -7.5029   0.0000   0.3066
  19.000   1.0466   0.09379   0.08958  -0.0916  0.0115  1.0000  -7.8640   0.0000   0.3086
  20.000   1.0304   0.10907   0.10521  -0.0965  0.0108  1.0000  -8.0894   0.0000   0.3124


