xflr5 v6.49

 Calculated polar for: Aerofoil16

 1 1 Reynolds number fixed          Mach number fixed         

 xtrf =   1.000 (top)        1.000 (bottom)
 Mach =   0.000     Re =     0.500 e 6     Ncrit =   5.000

  alpha     CL        CD       CDp       Cm    Top Xtr Bot Xtr   Cpmin    Chinge    XCp    
 ------- -------- --------- --------- -------- ------- ------- -------- --------- ---------
 -20.000  -0.3625   0.15700   0.15455   0.0094  1.0000  0.0095  -2.1413   0.0000   0.2401
 -19.000  -0.3544   0.14249   0.14007   0.0034  1.0000  0.0101  -2.6155   0.0000   0.2264
 -17.000  -0.6171   0.05927   0.05643  -0.0139  1.0000  0.0124  -7.8745   0.0000   0.2143
 -16.000  -0.6950   0.03697   0.03361  -0.0205  0.9991  0.0124  -8.5435   0.0000   0.2114
 -15.000  -0.6676   0.02604   0.02207  -0.0340  0.9482  0.0135  -8.0268   0.0000   0.1915
 -14.000  -0.6677   0.02183   0.01728  -0.0270  0.8903  0.0146  -7.5236   0.0000   0.2032
 -13.000  -0.6521   0.01940   0.01436  -0.0181  0.8595  0.0155  -6.8864   0.0000   0.2165
 -12.000  -0.6043   0.01658   0.01117  -0.0161  0.8382  0.0176  -6.0861   0.0000   0.2180
 -11.000  -0.5313   0.01475   0.00902  -0.0190  0.8207  0.0204  -5.1721   0.0000   0.2087
 -10.000  -0.4518   0.01310   0.00709  -0.0231  0.8035  0.0245  -4.3740   0.0000   0.1928
  -9.000  -0.3646   0.01183   0.00563  -0.0290  0.7876  0.0310  -3.5759   0.0000   0.1634
  -8.000  -0.2740   0.01079   0.00444  -0.0357  0.7721  0.0419  -2.8187   0.0000   0.1110
  -7.000  -0.1807   0.00992   0.00352  -0.0430  0.7551  0.0625  -2.1542   0.0000  -0.0006
  -6.000  -0.0856   0.00917   0.00283  -0.0509  0.7399  0.1068  -1.5853   0.0000  -0.3692
  -5.000   0.0093   0.00842   0.00227  -0.0589  0.7228  0.2012  -1.1141   0.0000   6.8097
  -4.000   0.1049   0.00766   0.00196  -0.0672  0.7061  0.3547  -0.7365   0.0000   0.9075
  -3.000   0.2005   0.00712   0.00181  -0.0755  0.6888  0.5212  -0.6138   0.0000   0.6334
  -2.000   0.2967   0.00685   0.00182  -0.0837  0.6693  0.6528  -0.6789   0.0000   0.5352
  -1.000   0.3927   0.00674   0.00196  -0.0918  0.6496  0.7540  -0.7493   0.0000   0.4847
   0.000   0.4864   0.00674   0.00217  -0.0993  0.6281  0.8395  -0.8251   0.0000   0.4532
   1.000   0.5808   0.00687   0.00245  -0.1069  0.6037  0.9207  -0.9122   0.0000   0.4317
   2.000   0.6979   0.00718   0.00280  -0.1213  0.5713  0.9768  -1.1268   0.0000   0.4201
   3.000   0.7965   0.00791   0.00326  -0.1313  0.4900  1.0000  -1.5356   0.0000   0.4096
   4.000   0.8469   0.00922   0.00417  -0.1285  0.3803  1.0000  -1.9327   0.0000   0.3952
   5.000   0.8531   0.01132   0.00569  -0.1151  0.2455  1.0000  -2.2410   0.0000   0.3770
   6.000   0.8586   0.01423   0.00812  -0.1037  0.1289  1.0000  -2.5914   0.0000   0.3615
   7.000   0.8836   0.01711   0.01077  -0.0981  0.0687  1.0000  -3.0273   0.0000   0.3502
   8.000   0.9168   0.02003   0.01368  -0.0952  0.0444  1.0000  -3.5151   0.0000   0.3415
   9.000   0.9511   0.02329   0.01701  -0.0933  0.0316  1.0000  -4.0946   0.0000   0.3342
  10.000   0.9827   0.02709   0.02097  -0.0919  0.0249  1.0000  -4.6967   0.0000   0.3279
  11.000   1.0064   0.03198   0.02600  -0.0902  0.0203  1.0000  -5.2699   0.0000   0.3224
  12.000   1.0338   0.03708   0.03134  -0.0901  0.0174  1.0000  -5.8880   0.0000   0.3181
  13.000   1.0470   0.04411   0.03859  -0.0894  0.0146  1.0000  -6.4173   0.0000   0.3145
  14.000   1.0629   0.05162   0.04640  -0.0902  0.0135  1.0000  -6.9673   0.0000   0.3120
  15.000   1.0708   0.06085   0.05597  -0.0917  0.0122  1.0000  -7.4532   0.0000   0.3107
  16.000   1.0720   0.07196   0.06740  -0.0942  0.0112  1.0000  -7.9272   0.0000   0.3109
  17.000   1.0609   0.08598   0.08177  -0.0978  0.0103  1.0000  -8.2798   0.0000   0.3130
  18.000   1.0376   0.10315   0.09934  -0.1028  0.0097  1.0000  -8.4214   0.0000   0.3177
  19.000   1.0168   0.12081   0.11744  -0.1095  0.0094  1.0000  -8.5132   0.0000   0.3241
  20.000   0.9841   0.14130   0.13837  -0.1176  0.0091  1.0000  -8.3084   0.0000   0.3337


