xflr5 v6.49

 Calculated polar for: Aerofoil91

 1 1 Reynolds number fixed          Mach number fixed         

 xtrf =   1.000 (top)        1.000 (bottom)
 Mach =   0.000     Re =     0.500 e 6     Ncrit =   5.000

  alpha     CL        CD       CDp       Cm    Top Xtr Bot Xtr   Cpmin    Chinge    XCp    
 ------- -------- --------- --------- -------- ------- ------- -------- --------- ---------
 -18.000  -0.6713   0.09472   0.09176   0.0111  1.0000  0.0177  -6.6346   0.0000   0.2429
 -17.000  -0.7367   0.07317   0.06988   0.0077  1.0000  0.0182  -7.1253   0.0000   0.2402
 -16.000  -0.7791   0.05440   0.05074   0.0009  0.9981  0.0188  -7.3148   0.0000   0.2337
 -15.000  -0.7943   0.03930   0.03522  -0.0082  0.9921  0.0198  -7.2446   0.0000   0.2245
 -14.000  -0.7792   0.02883   0.02432  -0.0176  0.9814  0.0209  -6.8951   0.0000   0.2140
 -13.000  -0.7540   0.02174   0.01684  -0.0237  0.9695  0.0229  -6.4311   0.0000   0.2066
 -12.000  -0.7176   0.01869   0.01353  -0.0216  0.9518  0.0261  -5.8248   0.0000   0.2089
 -11.000  -0.6280   0.01611   0.01069  -0.0309  0.9456  0.0306  -4.9972   0.0000   0.1901
 -10.000  -0.5616   0.01443   0.00882  -0.0325  0.9293  0.0361  -4.2997   0.0000   0.1818
  -9.000  -0.4583   0.01274   0.00700  -0.0437  0.9218  0.0467  -3.5330   0.0000   0.1441
  -8.000  -0.3595   0.01140   0.00562  -0.0532  0.9109  0.0630  -2.8804   0.0000   0.0906
  -7.000  -0.2607   0.01028   0.00448  -0.0624  0.8964  0.0898  -2.2742   0.0000  -0.0026
  -6.000  -0.1602   0.00932   0.00360  -0.0721  0.8811  0.1328  -1.7715   0.0000  -0.2176
  -5.000  -0.0547   0.00850   0.00287  -0.0829  0.8634  0.1940  -1.3302   0.0000  -1.3084
  -4.000   0.0398   0.00792   0.00242  -0.0906  0.8408  0.2613  -0.9897   0.0000   2.5755
  -3.000   0.1371   0.00751   0.00212  -0.0990  0.8163  0.3301  -0.7216   0.0000   0.9817
  -2.000   0.2338   0.00724   0.00195  -0.1072  0.7886  0.3969  -0.5528   0.0000   0.7116
  -1.000   0.3290   0.00712   0.00189  -0.1148  0.7569  0.4592  -0.6190   0.0000   0.5996
   0.000   0.4211   0.00711   0.00194  -0.1216  0.7210  0.5191  -0.6946   0.0000   0.5377
   1.000   0.5078   0.00720   0.00210  -0.1269  0.6771  0.5787  -0.7872   0.0000   0.4975
   2.000   0.5871   0.00743   0.00236  -0.1301  0.6219  0.6408  -0.9285   0.0000   0.4682
   3.000   0.6498   0.00782   0.00273  -0.1289  0.5488  0.7095  -1.1296   0.0000   0.4439
   5.000   0.7520   0.00965   0.00435  -0.1213  0.3399  1.0000  -1.6721   0.0000   0.4049
   6.000   0.7943   0.01135   0.00555  -0.1163  0.2267  1.0000  -2.0003   0.0000   0.3891
   7.000   0.8379   0.01319   0.00703  -0.1123  0.1420  1.0000  -2.3792   0.0000   0.3756
   8.000   0.8838   0.01508   0.00872  -0.1092  0.0919  1.0000  -2.7998   0.0000   0.3642
   9.000   0.9291   0.01712   0.01070  -0.1066  0.0649  1.0000  -3.2664   0.0000   0.3543
  10.000   0.9726   0.01942   0.01303  -0.1043  0.0483  1.0000  -3.7811   0.0000   0.3456
  11.000   1.0113   0.02218   0.01589  -0.1017  0.0388  1.0000  -4.2968   0.0000   0.3377
  12.000   1.0452   0.02553   0.01938  -0.0991  0.0320  1.0000  -4.8094   0.0000   0.3307
  13.000   1.0718   0.02976   0.02377  -0.0963  0.0271  1.0000  -5.3239   0.0000   0.3244
  14.000   1.0953   0.03473   0.02898  -0.0943  0.0239  1.0000  -5.8775   0.0000   0.3192
  15.000   1.1039   0.04168   0.03615  -0.0918  0.0211  1.0000  -6.3447   0.0000   0.3147
  16.000   1.1136   0.04942   0.04422  -0.0912  0.0197  1.0000  -6.8173   0.0000   0.3117
  17.000   1.1155   0.05898   0.05410  -0.0916  0.0180  1.0000  -7.2335   0.0000   0.3102
  18.000   1.1067   0.07110   0.06652  -0.0933  0.0164  1.0000  -7.5536   0.0000   0.3105
  19.000   1.0788   0.08746   0.08325  -0.0967  0.0152  1.0000  -7.6582   0.0000   0.3136
  20.000   1.0560   0.10417   0.10036  -0.1020  0.0147  1.0000  -7.7445   0.0000   0.3184


