xflr5 v6.49

 Calculated polar for: Aerofoil52

 1 1 Reynolds number fixed          Mach number fixed         

 xtrf =   1.000 (top)        1.000 (bottom)
 Mach =   0.000     Re =     0.500 e 6     Ncrit =   5.000

  alpha     CL        CD       CDp       Cm    Top Xtr Bot Xtr   Cpmin    Chinge    XCp    
 ------- -------- --------- --------- -------- ------- ------- -------- --------- ---------
 -20.000  -0.3462   0.17338   0.17091  -0.0017  0.9977  0.0098  -2.3125   0.0000   0.1954
 -19.000  -0.3098   0.16134   0.15885  -0.0140  0.9942  0.0109  -2.3071   0.0000   0.1541
 -18.000  -0.2729   0.14941   0.14690  -0.0261  0.9891  0.0120  -2.2467   0.0000   0.1018
 -17.000  -0.2472   0.13393   0.13139  -0.0379  0.9823  0.0137  -2.4601   0.0000   0.0432
 -16.000  -0.4924   0.06631   0.06328  -0.0488  0.9748  0.0171  -6.6752   0.0000   0.1228
 -15.000  -0.5696   0.04335   0.03985  -0.0556  0.9581  0.0172  -7.3449   0.0000   0.1304
 -14.000  -0.5686   0.02861   0.02459  -0.0698  0.9469  0.0181  -7.2178   0.0000   0.1080
 -13.000  -0.5373   0.02158   0.01708  -0.0776  0.9290  0.0196  -6.7200   0.0000   0.0880
 -12.000  -0.4925   0.01817   0.01320  -0.0793  0.9088  0.0211  -6.0769   0.0000   0.0721
 -11.000  -0.4590   0.01597   0.01072  -0.0745  0.8871  0.0242  -5.4806   0.0000   0.0718
 -10.000  -0.3993   0.01445   0.00889  -0.0747  0.8688  0.0275  -4.7717   0.0000   0.0469
  -9.000  -0.3294   0.01298   0.00722  -0.0771  0.8530  0.0322  -4.0547   0.0000  -0.0010
  -8.000  -0.2480   0.01183   0.00587  -0.0821  0.8382  0.0398  -3.3696   0.0000  -0.1001
  -7.000  -0.1650   0.01091   0.00483  -0.0873  0.8236  0.0508  -2.7607   0.0000  -0.3035
  -6.000  -0.0752   0.01012   0.00393  -0.0942  0.8085  0.0697  -2.1685   0.0000  -1.0477
  -5.000   0.0122   0.00945   0.00331  -0.1003  0.7941  0.1011  -1.6793   0.0000   8.7224
  -4.000   0.1055   0.00888   0.00276  -0.1081  0.7789  0.1526  -1.2379   0.0000   1.2950
  -3.000   0.1934   0.00838   0.00248  -0.1143  0.7631  0.2266  -0.8890   0.0000   0.8493
  -2.000   0.2851   0.00799   0.00226  -0.1216  0.7471  0.3231  -0.6901   0.0000   0.6798
  -1.000   0.3742   0.00767   0.00219  -0.1281  0.7291  0.4325  -0.7452   0.0000   0.5930
   0.000   0.4608   0.00745   0.00227  -0.1338  0.7109  0.5507  -0.8029   0.0000   0.5395
   1.000   0.5452   0.00730   0.00241  -0.1388  0.6911  0.6785  -0.8653   0.0000   0.5024
   2.000   0.6219   0.00717   0.00266  -0.1414  0.6683  0.8297  -0.9298   0.0000   0.4740
   3.000   0.7533   0.00752   0.00317  -0.1595  0.6423  0.9789  -1.0410   0.0000   0.4573
   4.000   0.8328   0.00798   0.00360  -0.1635  0.6090  1.0000  -1.1921   0.0000   0.4409
   5.000   0.8653   0.00863   0.00410  -0.1547  0.5565  1.0000  -1.4042   0.0000   0.4222
   6.000   0.8869   0.00991   0.00514  -0.1438  0.4821  1.0000  -1.6466   0.0000   0.4045
   7.000   0.9046   0.01201   0.00689  -0.1333  0.3869  1.0000  -1.9108   0.0000   0.3887
   8.000   0.9179   0.01519   0.00962  -0.1236  0.2704  1.0000  -2.2070   0.0000   0.3747
   9.000   0.9364   0.01897   0.01294  -0.1165  0.1637  1.0000  -2.5257   0.0000   0.3634
  10.000   0.9652   0.02269   0.01641  -0.1126  0.0988  1.0000  -2.9343   0.0000   0.3543
  11.000   0.9984   0.02650   0.02013  -0.1101  0.0634  1.0000  -3.3795   0.0000   0.3467
  12.000   1.0329   0.03051   0.02419  -0.1086  0.0460  1.0000  -3.8472   0.0000   0.3403
  13.000   1.0638   0.03508   0.02886  -0.1072  0.0350  1.0000  -4.3639   0.0000   0.3345
  14.000   1.0894   0.04042   0.03435  -0.1058  0.0283  1.0000  -4.8903   0.0000   0.3294
  15.000   1.1119   0.04632   0.04049  -0.1047  0.0244  1.0000  -5.4150   0.0000   0.3249
  16.000   1.1232   0.05367   0.04804  -0.1031  0.0209  1.0000  -5.8854   0.0000   0.3209
  17.000   1.1338   0.06145   0.05611  -0.1023  0.0185  1.0000  -6.3612   0.0000   0.3176
  18.000   1.1336   0.07076   0.06567  -0.1014  0.0166  1.0000  -6.7669   0.0000   0.3150
  19.000   1.1171   0.08243   0.07763  -0.1003  0.0151  1.0000  -7.0338   0.0000   0.3134
  20.000   1.1043   0.09386   0.08942  -0.1004  0.0143  1.0000  -7.3122   0.0000   0.3126


