xflr5 v6.49

 Calculated polar for: Aerofoil100

 1 1 Reynolds number fixed          Mach number fixed         

 xtrf =   1.000 (top)        1.000 (bottom)
 Mach =   0.000     Re =     0.500 e 6     Ncrit =   5.000

  alpha     CL        CD       CDp       Cm    Top Xtr Bot Xtr   Cpmin    Chinge    XCp    
 ------- -------- --------- --------- -------- ------- ------- -------- --------- ---------
 -20.000  -0.2300   0.15648   0.15389  -0.0464  0.9753  0.0098  -2.2463   0.0000  -0.0326
 -19.000  -0.2123   0.14469   0.14211  -0.0532  0.9691  0.0109  -2.4154   0.0000  -0.0815
 -18.000  -0.1952   0.13475   0.13217  -0.0582  0.9607  0.0118  -2.3787   0.0000  -0.1291
 -17.000  -0.4200   0.07181   0.06886  -0.0655  0.9550  0.0150  -6.6060   0.0000   0.0590
 -16.000  -0.4994   0.04466   0.04111  -0.0774  0.9487  0.0150  -7.4580   0.0000   0.0692
 -15.000  -0.5207   0.03174   0.02765  -0.0826  0.9372  0.0153  -7.3672   0.0000   0.0699
 -14.000  -0.5230   0.02376   0.01919  -0.0828  0.9233  0.0165  -7.0132   0.0000   0.0732
 -13.000  -0.4849   0.02006   0.01513  -0.0835  0.9100  0.0181  -6.3493   0.0000   0.0601
 -12.000  -0.4267   0.01737   0.01206  -0.0861  0.8964  0.0202  -5.6353   0.0000   0.0302
 -11.000  -0.3643   0.01523   0.00961  -0.0882  0.8832  0.0231  -4.9216   0.0000  -0.0109
 -10.000  -0.3120   0.01391   0.00806  -0.0862  0.8666  0.0271  -4.2581   0.0000  -0.0455
  -9.000  -0.2602   0.01278   0.00674  -0.0834  0.8518  0.0318  -3.6367   0.0000  -0.0911
  -8.000  -0.1846   0.01174   0.00553  -0.0868  0.8376  0.0403  -2.9512   0.0000  -0.2455
  -7.000  -0.1215   0.01101   0.00472  -0.0865  0.8232  0.0526  -2.4304   0.0000  -0.4955
  -6.000  -0.0397   0.01026   0.00391  -0.0914  0.8097  0.0770  -1.8870   0.0000  -2.1408
  -5.000   0.0251   0.00968   0.00343  -0.0914  0.7948  0.1174  -1.4554   0.0000   4.0026
  -4.000   0.1085   0.00902   0.00290  -0.0967  0.7806  0.1972  -1.0471   0.0000   1.1624
  -3.000   0.1572   0.00846   0.00268  -0.0922  0.7647  0.3115  -0.7779   0.0000   0.8472
  -2.000   0.2360   0.00777   0.00243  -0.0961  0.7498  0.4974  -0.7032   0.0000   0.6622
  -1.000   0.2823   0.00734   0.00254  -0.0908  0.7324  0.6783  -0.7319   0.0000   0.5731
   0.000   0.3599   0.00718   0.00280  -0.0938  0.7167  0.8413  -0.7807   0.0000   0.5100
   1.000   0.5168   0.00767   0.00336  -0.1196  0.7011  0.9177  -0.8776   0.0000   0.4792
   2.000   0.6348   0.00820   0.00391  -0.1346  0.6830  0.9469  -0.9590   0.0000   0.4585
   3.000   0.7272   0.00871   0.00442  -0.1426  0.6617  0.9750  -1.0331   0.0000   0.4413
   4.000   0.8305   0.00922   0.00494  -0.1540  0.6356  0.9935  -1.2218   0.0000   0.4294
   5.000   0.8783   0.01022   0.00579  -0.1506  0.5675  1.0000  -1.5177   0.0000   0.4141
   6.000   0.8839   0.01189   0.00718  -0.1364  0.4882  1.0000  -1.7688   0.0000   0.3957
   7.000   0.8832   0.01487   0.00976  -0.1224  0.3787  1.0000  -2.0300   0.0000   0.3785
   8.000   0.8768   0.01932   0.01358  -0.1092  0.2324  1.0000  -2.2888   0.0000   0.3630
   9.000   0.8880   0.02372   0.01751  -0.1015  0.1209  1.0000  -2.6375   0.0000   0.3513
  10.000   0.9156   0.02771   0.02131  -0.0979  0.0675  1.0000  -3.0581   0.0000   0.3425
  11.000   0.9495   0.03159   0.02519  -0.0961  0.0456  1.0000  -3.5208   0.0000   0.3354
  12.000   0.9827   0.03582   0.02952  -0.0949  0.0332  1.0000  -4.0693   0.0000   0.3292
  13.000   1.0122   0.04063   0.03447  -0.0938  0.0265  1.0000  -4.6192   0.0000   0.3237
  14.000   1.0376   0.04608   0.04010  -0.0928  0.0220  1.0000  -5.1664   0.0000   0.3188
  15.000   1.0592   0.05224   0.04650  -0.0921  0.0188  1.0000  -5.7066   0.0000   0.3146
  16.000   1.0737   0.05946   0.05393  -0.0914  0.0162  1.0000  -6.2195   0.0000   0.3110
  17.000   1.0784   0.06825   0.06302  -0.0907  0.0145  1.0000  -6.6572   0.0000   0.3080
  18.000   1.0817   0.07767   0.07277  -0.0909  0.0134  1.0000  -7.1030   0.0000   0.3060
  19.000   1.0787   0.08838   0.08382  -0.0918  0.0123  1.0000  -7.5444   0.0000   0.3049
  20.000   1.0677   0.10068   0.09644  -0.0936  0.0115  1.0000  -7.8976   0.0000   0.3052


