xflr5 v6.49

 Calculated polar for: Aerofoil44

 1 1 Reynolds number fixed          Mach number fixed         

 xtrf =   1.000 (top)        1.000 (bottom)
 Mach =   0.000     Re =     0.500 e 6     Ncrit =   5.000

  alpha     CL        CD       CDp       Cm    Top Xtr Bot Xtr   Cpmin    Chinge    XCp    
 ------- -------- --------- --------- -------- ------- ------- -------- --------- ---------
 -20.000  -0.3995   0.17949   0.17703   0.0270  1.0000  0.0080  -1.6847   0.0000   0.2879
 -19.000  -0.3763   0.16853   0.16608   0.0203  1.0000  0.0088  -1.8115   0.0000   0.2753
 -17.000  -0.3365   0.14551   0.14310   0.0082  1.0000  0.0098  -1.9750   0.0000   0.2479
 -16.000  -0.3201   0.13447   0.13210   0.0036  1.0000  0.0093  -1.9760   0.0000   0.2361
 -15.000  -0.3129   0.12154   0.11921  -0.0002  1.0000  0.0094  -2.3623   0.0000   0.2261
 -14.000  -0.3179   0.10665   0.10439  -0.0032  1.0000  0.0106  -2.9627   0.0000   0.2195
 -13.000  -0.5161   0.04718   0.04474  -0.0222  0.9907  0.0113  -7.6040   0.0000   0.1968
 -12.000  -0.5325   0.02260   0.01908  -0.0473  0.9515  0.0116  -8.0991   0.0000   0.1537
 -11.000  -0.4448   0.01831   0.01420  -0.0581  0.9267  0.0136  -6.9121   0.0000   0.1117
 -10.000  -0.3595   0.01506   0.01027  -0.0654  0.8956  0.0154  -5.8323   0.0000   0.0594
  -9.000  -0.2727   0.01259   0.00735  -0.0722  0.8648  0.0186  -4.8109   0.0000  -0.0249
  -8.000  -0.1803   0.01103   0.00543  -0.0796  0.8357  0.0234  -3.9231   0.0000  -0.2053
  -7.000  -0.0852   0.00992   0.00404  -0.0875  0.8077  0.0310  -3.0681   0.0000  -0.8041
  -6.000   0.0117   0.00913   0.00305  -0.0957  0.7804  0.0456  -2.2609   0.0000   8.6406
  -5.000   0.1092   0.00848   0.00234  -0.1041  0.7536  0.0763  -1.6265   0.0000   1.2207
  -4.000   0.2071   0.00798   0.00188  -0.1127  0.7271  0.1371  -1.0812   0.0000   0.8020
  -3.000   0.3050   0.00757   0.00163  -0.1214  0.7007  0.2387  -0.6652   0.0000   0.6522
  -2.000   0.4026   0.00728   0.00157  -0.1301  0.6739  0.3687  -0.6934   0.0000   0.5751
  -1.000   0.4993   0.00711   0.00166  -0.1385  0.6465  0.5140  -0.7700   0.0000   0.5278
   0.000   0.5939   0.00699   0.00189  -0.1463  0.6181  0.6824  -0.8523   0.0000   0.4954
   1.000   0.6867   0.00674   0.00213  -0.1532  0.5882  1.0000  -0.9438   0.0000   0.4710
   2.000   0.7809   0.00717   0.00246  -0.1610  0.5558  1.0000  -1.0520   0.0000   0.4529
   3.000   0.8716   0.00771   0.00295  -0.1680  0.5138  1.0000  -1.3845   0.0000   0.4383
   4.000   0.9476   0.00882   0.00370  -0.1714  0.4098  1.0000  -1.8539   0.0000   0.4251
   5.000   1.0063   0.01073   0.00500  -0.1708  0.2653  1.0000  -2.3956   0.0000   0.4128
   6.000   1.0313   0.01342   0.00700  -0.1622  0.1133  1.0000  -2.8450   0.0000   0.3991
   8.000   1.0969   0.01827   0.01166  -0.1512  0.0322  1.0000  -4.0535   0.0000   0.3771
   9.000   1.1294   0.02130   0.01483  -0.1473  0.0233  1.0000  -4.7017   0.0000   0.3684
  10.000   1.1573   0.02512   0.01886  -0.1439  0.0179  1.0000  -5.3518   0.0000   0.3608
  11.000   1.1760   0.03026   0.02421  -0.1404  0.0146  1.0000  -5.9528   0.0000   0.3543
  12.000   1.1948   0.03619   0.03045  -0.1384  0.0127  1.0000  -6.6700   0.0000   0.3491
  13.000   1.2067   0.04367   0.03823  -0.1371  0.0111  1.0000  -7.3586   0.0000   0.3452
  14.000   1.2028   0.05416   0.04906  -0.1361  0.0099  1.0000  -7.8800   0.0000   0.3430
  15.000   1.2086   0.06476   0.06006  -0.1378  0.0091  1.0000  -8.5030   0.0000   0.3419
  16.000   1.2072   0.07760   0.07331  -0.1408  0.0081  1.0000  -9.0442   0.0000   0.3426
  17.000   1.1971   0.09310   0.08923  -0.1454  0.0075  1.0000  -9.4516   0.0000   0.3454
  18.000   1.1777   0.11125   0.10780  -0.1517  0.0070  1.0000  -9.6723   0.0000   0.3506
  19.000   1.1495   0.13167   0.12864  -0.1598  0.0067  1.0000  -9.6460   0.0000   0.3586
  20.000   1.1121   0.15451   0.15192  -0.1696  0.0065  1.0000  -9.2621   0.0000   0.3699


