xflr5 v6.49

 Calculated polar for: Aerofoil29

 1 1 Reynolds number fixed          Mach number fixed         

 xtrf =   1.000 (top)        1.000 (bottom)
 Mach =   0.000     Re =     0.500 e 6     Ncrit =   5.000

  alpha     CL        CD       CDp       Cm    Top Xtr Bot Xtr   Cpmin    Chinge    XCp    
 ------- -------- --------- --------- -------- ------- ------- -------- --------- ---------
 -19.000  -0.5698   0.09532   0.09230  -0.0140  0.9951  0.0233  -5.9634   0.0000   0.1939
 -18.000  -0.6334   0.06983   0.06643  -0.0248  0.9901  0.0244  -6.5293   0.0000   0.1848
 -17.000  -0.6717   0.05028   0.04647  -0.0354  0.9820  0.0254  -6.7346   0.0000   0.1752
 -16.000  -0.6725   0.03608   0.03185  -0.0475  0.9738  0.0267  -6.5908   0.0000   0.1599
 -15.000  -0.6766   0.02721   0.02260  -0.0490  0.9563  0.0279  -6.3318   0.0000   0.1606
 -14.000  -0.6335   0.02134   0.01636  -0.0558  0.9460  0.0300  -5.8060   0.0000   0.1459
 -13.000  -0.6038   0.01824   0.01304  -0.0526  0.9251  0.0329  -5.3473   0.0000   0.1479
 -12.000  -0.5354   0.01620   0.01073  -0.0559  0.9094  0.0366  -4.7463   0.0000   0.1305
 -11.000  -0.4453   0.01420   0.00855  -0.0641  0.8927  0.0431  -4.0942   0.0000   0.0898
 -10.000  -0.3697   0.01289   0.00707  -0.0676  0.8700  0.0496  -3.5193   0.0000   0.0498
  -9.000  -0.2881   0.01184   0.00587  -0.0722  0.8471  0.0602  -2.9726   0.0000  -0.0205
  -8.000  -0.2047   0.01097   0.00489  -0.0771  0.8233  0.0738  -2.4884   0.0000  -0.1514
  -7.000  -0.1201   0.01028   0.00410  -0.0822  0.7987  0.0942  -2.0278   0.0000  -0.4709
  -6.000  -0.0358   0.00968   0.00346  -0.0871  0.7732  0.1242  -1.6387   0.0000  -2.2876
  -5.000   0.0480   0.00918   0.00299  -0.0919  0.7472  0.1668  -1.2895   0.0000   2.2313
  -4.000   0.1310   0.00878   0.00264  -0.0964  0.7207  0.2228  -0.9932   0.0000   1.0054
  -3.000   0.2121   0.00845   0.00242  -0.1005  0.6938  0.2956  -0.7489   0.0000   0.7324
  -2.000   0.2903   0.00822   0.00231  -0.1038  0.6665  0.3797  -0.7700   0.0000   0.6110
  -1.000   0.3600   0.00803   0.00230  -0.1047  0.6391  0.4720  -0.8334   0.0000   0.5413
   0.000   0.4276   0.00794   0.00241  -0.1050  0.6114  0.5742  -0.9009   0.0000   0.4940
   1.000   0.4950   0.00797   0.00269  -0.1054  0.5834  0.6872  -0.9755   0.0000   0.4595
   2.000   0.5562   0.00803   0.00312  -0.1040  0.5547  0.8323  -1.0532   0.0000   0.4320
   3.000   0.7208   0.00881   0.00400  -0.1316  0.5186  0.9626  -1.2215   0.0000   0.4264
   5.000   0.8597   0.01050   0.00549  -0.1356  0.4459  1.0000  -1.4979   0.0000   0.3989
   6.000   0.9071   0.01167   0.00653  -0.1322  0.4035  1.0000  -1.6890   0.0000   0.3856
   7.000   0.9505   0.01329   0.00803  -0.1286  0.3544  1.0000  -1.9256   0.0000   0.3738
   8.000   0.9880   0.01549   0.01008  -0.1245  0.2999  1.0000  -2.1908   0.0000   0.3631
   9.000   1.0203   0.01839   0.01282  -0.1204  0.2436  1.0000  -2.4795   0.0000   0.3535
  10.000   1.0459   0.02212   0.01639  -0.1160  0.1892  1.0000  -2.7697   0.0000   0.3450
  11.000   1.0675   0.02663   0.02078  -0.1122  0.1420  1.0000  -3.0892   0.0000   0.3375
  12.000   1.0864   0.03189   0.02598  -0.1091  0.1058  1.0000  -3.4071   0.0000   0.3312
  13.000   1.1042   0.03776   0.03189  -0.1070  0.0822  1.0000  -3.7342   0.0000   0.3259
  14.000   1.1170   0.04455   0.03875  -0.1052  0.0645  1.0000  -4.0785   0.0000   0.3214
  15.000   1.1263   0.05225   0.04658  -0.1041  0.0529  1.0000  -4.4109   0.0000   0.3178
  16.000   1.1323   0.06073   0.05525  -0.1036  0.0450  1.0000  -4.7297   0.0000   0.3149
  17.000   1.1347   0.07007   0.06482  -0.1036  0.0390  1.0000  -5.0301   0.0000   0.3128
  18.000   1.1276   0.08097   0.07594  -0.1039  0.0340  1.0000  -5.2796   0.0000   0.3115
  19.000   1.1206   0.09227   0.08750  -0.1051  0.0305  1.0000  -5.5550   0.0000   0.3110
  20.000   1.1033   0.10529   0.10074  -0.1069  0.0273  1.0000  -5.7502   0.0000   0.3118


