xflr5 v6.49

 Calculated polar for: Aerofoil64

 1 1 Reynolds number fixed          Mach number fixed         

 xtrf =   1.000 (top)        1.000 (bottom)
 Mach =   0.000     Re =     0.500 e 6     Ncrit =   5.000

  alpha     CL        CD       CDp       Cm    Top Xtr Bot Xtr   Cpmin    Chinge    XCp    
 ------- -------- --------- --------- -------- ------- ------- -------- --------- ---------
 -20.000  -0.4183   0.18398   0.18150   0.0244  1.0000  0.0083  -1.9243   0.0000   0.2760
 -19.000  -0.3976   0.17273   0.17025   0.0177  1.0000  0.0094  -2.0127   0.0000   0.2637
 -18.000  -0.3791   0.16158   0.15912   0.0118  1.0000  0.0093  -2.0548   0.0000   0.2519
 -17.000  -0.3661   0.14926   0.14683   0.0068  1.0000  0.0092  -2.2665   0.0000   0.2410
 -16.000  -0.3657   0.13409   0.13171   0.0028  1.0000  0.0104  -2.8785   0.0000   0.2322
 -15.000  -0.3575   0.12403   0.12170   0.0001  1.0000  0.0112  -2.8473   0.0000   0.2268
 -14.000  -0.6022   0.05443   0.05165  -0.0151  0.9958  0.0124  -7.7810   0.0000   0.2100
 -13.000  -0.6411   0.02976   0.02631  -0.0363  0.9753  0.0127  -8.2948   0.0000   0.1814
 -11.000  -0.5517   0.01798   0.01334  -0.0484  0.9282  0.0155  -6.7565   0.0000   0.1522
 -10.000  -0.4808   0.01524   0.01022  -0.0526  0.9076  0.0181  -5.7674   0.0000   0.1308
  -9.000  -0.3981   0.01341   0.00799  -0.0583  0.8891  0.0211  -4.8656   0.0000   0.0935
  -8.000  -0.3126   0.01185   0.00621  -0.0645  0.8706  0.0275  -4.0129   0.0000   0.0330
  -7.000  -0.2216   0.01063   0.00476  -0.0717  0.8541  0.0360  -3.1953   0.0000  -0.0863
  -6.000  -0.1277   0.00965   0.00368  -0.0795  0.8371  0.0538  -2.4371   0.0000  -0.3909
  -5.000  -0.0326   0.00887   0.00290  -0.0876  0.8203  0.0873  -1.8227   0.0000  -2.4958
  -4.000   0.0640   0.00822   0.00231  -0.0961  0.8032  0.1467  -1.2891   0.0000   1.7743
  -3.000   0.1608   0.00769   0.00195  -0.1046  0.7846  0.2305  -0.8684   0.0000   0.9070
  -2.000   0.2580   0.00732   0.00177  -0.1131  0.7662  0.3231  -0.5632   0.0000   0.6910
  -1.000   0.3554   0.00709   0.00170  -0.1216  0.7464  0.4165  -0.6212   0.0000   0.5928
   0.000   0.4519   0.00695   0.00176  -0.1298  0.7240  0.5141  -0.6839   0.0000   0.5366
   1.000   0.5467   0.00684   0.00192  -0.1376  0.6996  0.6225  -0.7535   0.0000   0.4999
   2.000   0.6365   0.00670   0.00220  -0.1438  0.6703  0.7813  -0.8397   0.0000   0.4732
   3.000   0.7350   0.00678   0.00249  -0.1522  0.6160  1.0000  -1.1399   0.0000   0.4535
   4.000   0.8055   0.00769   0.00299  -0.1535  0.5059  1.0000  -1.5110   0.0000   0.4361
   5.000   0.8459   0.00950   0.00409  -0.1474  0.3336  1.0000  -1.8929   0.0000   0.4188
   6.000   0.8636   0.01183   0.00568  -0.1362  0.1674  1.0000  -2.2604   0.0000   0.4014
   7.000   0.9004   0.01397   0.00747  -0.1306  0.0825  1.0000  -2.7375   0.0000   0.3878
   8.000   0.9446   0.01599   0.00940  -0.1275  0.0488  1.0000  -3.2724   0.0000   0.3767
   9.000   0.9887   0.01825   0.01171  -0.1249  0.0329  1.0000  -3.9132   0.0000   0.3670
  10.000   1.0303   0.02090   0.01447  -0.1225  0.0251  1.0000  -4.5887   0.0000   0.3584
  11.000   1.0661   0.02420   0.01794  -0.1197  0.0202  1.0000  -5.2601   0.0000   0.3507
  12.000   1.1000   0.02796   0.02189  -0.1176  0.0165  1.0000  -5.9578   0.0000   0.3441
  13.000   1.1241   0.03294   0.02714  -0.1150  0.0144  1.0000  -6.5925   0.0000   0.3381
  14.000   1.1454   0.03875   0.03326  -0.1132  0.0128  1.0000  -7.2242   0.0000   0.3332
  15.000   1.1600   0.04595   0.04075  -0.1121  0.0114  1.0000  -7.9128   0.0000   0.3295
  16.000   1.1542   0.05655   0.05174  -0.1110  0.0103  1.0000  -8.4000   0.0000   0.3273
  17.000   1.1502   0.06844   0.06406  -0.1123  0.0099  1.0000  -8.8872   0.0000   0.3270
  18.000   1.1359   0.08348   0.07958  -0.1157  0.0093  1.0000  -9.2250   0.0000   0.3292
  19.000   1.1084   0.10252   0.09911  -0.1218  0.0088  1.0000  -9.3244   0.0000   0.3351
  20.000   1.0663   0.12583   0.12293  -0.1306  0.0084  1.0000  -9.0609   0.0000   0.3454


