xflr5 v6.49

 Calculated polar for: Aerofoil96

 1 1 Reynolds number fixed          Mach number fixed         

 xtrf =   1.000 (top)        1.000 (bottom)
 Mach =   0.000     Re =     0.500 e 6     Ncrit =   5.000

  alpha     CL        CD       CDp       Cm    Top Xtr Bot Xtr   Cpmin    Chinge    XCp    
 ------- -------- --------- --------- -------- ------- ------- -------- --------- ---------
 -20.000  -0.3273   0.16432   0.16194  -0.0019  0.9987  0.0099  -2.0363   0.0000   0.1957
 -19.000  -0.2936   0.15090   0.14850  -0.0139  0.9957  0.0095  -2.0690   0.0000   0.1533
 -18.000  -0.2737   0.13282   0.13042  -0.0259  0.9910  0.0105  -2.7427   0.0000   0.1074
 -17.000  -0.2401   0.12052   0.11809  -0.0376  0.9836  0.0115  -2.6438   0.0000   0.0434
 -16.000  -0.5511   0.04401   0.04100  -0.0511  0.9674  0.0124  -8.1191   0.0000   0.1410
 -15.000  -0.5778   0.02899   0.02531  -0.0590  0.9493  0.0130  -8.1272   0.0000   0.1354
 -14.000  -0.5492   0.02324   0.01899  -0.0608  0.9300  0.0143  -7.4753   0.0000   0.1279
 -13.000  -0.4733   0.01904   0.01415  -0.0693  0.9140  0.0155  -6.5186   0.0000   0.0916
 -12.000  -0.4304   0.01613   0.01083  -0.0665  0.8870  0.0175  -5.7658   0.0000   0.0838
 -11.000  -0.3842   0.01463   0.00896  -0.0624  0.8621  0.0198  -5.0787   0.0000   0.0757
 -10.000  -0.3265   0.01321   0.00725  -0.0609  0.8403  0.0228  -4.3852   0.0000   0.0508
  -9.000  -0.2564   0.01215   0.00599  -0.0624  0.8213  0.0280  -3.6508   0.0000  -0.0081
  -8.000  -0.1808   0.01115   0.00478  -0.0653  0.8032  0.0353  -2.9489   0.0000  -0.1299
  -7.000  -0.1032   0.01038   0.00392  -0.0686  0.7844  0.0482  -2.3049   0.0000  -0.4449
  -6.000  -0.0228   0.00973   0.00325  -0.0726  0.7667  0.0727  -1.7641   0.0000  -3.0623
  -5.000   0.0600   0.00918   0.00273  -0.0774  0.7486  0.1227  -1.2697   0.0000   1.5806
  -4.000   0.1386   0.00857   0.00239  -0.0811  0.7304  0.2244  -0.8799   0.0000   0.8503
  -3.000   0.2114   0.00779   0.00217  -0.0834  0.7123  0.4318  -0.6698   0.0000   0.6522
  -2.000   0.2702   0.00680   0.00213  -0.0814  0.6927  0.7664  -0.7131   0.0000   0.5550
  -1.000   0.4221   0.00710   0.00263  -0.1052  0.6740  0.9002  -0.8113   0.0000   0.5002
   0.000   0.5334   0.00766   0.00314  -0.1177  0.6538  0.9353  -0.8929   0.0000   0.4699
   1.000   0.6458   0.00823   0.00365  -0.1309  0.6316  0.9542  -0.9822   0.0000   0.4503
   2.000   0.7325   0.00863   0.00402  -0.1373  0.6072  0.9694  -1.0642   0.0000   0.4336
   3.000   0.8318   0.00896   0.00439  -0.1475  0.5788  0.9815  -1.2432   0.0000   0.4222
   4.000   0.9037   0.00957   0.00490  -0.1504  0.5192  0.9959  -1.6197   0.0000   0.4098
   5.000   0.9253   0.01093   0.00595  -0.1403  0.4290  1.0000  -1.9456   0.0000   0.3936
   6.000   0.9185   0.01312   0.00781  -0.1239  0.3313  1.0000  -2.2285   0.0000   0.3754
   7.000   0.9088   0.01688   0.01100  -0.1092  0.1976  1.0000  -2.5226   0.0000   0.3592
   8.000   0.9143   0.02119   0.01487  -0.1002  0.0950  1.0000  -2.8742   0.0000   0.3469
   9.000   0.9392   0.02508   0.01866  -0.0962  0.0542  1.0000  -3.3246   0.0000   0.3382
  10.000   0.9680   0.02921   0.02282  -0.0938  0.0353  1.0000  -3.8668   0.0000   0.3311
  11.000   0.9969   0.03372   0.02747  -0.0924  0.0267  1.0000  -4.4316   0.0000   0.3251
  12.000   1.0220   0.03895   0.03289  -0.0912  0.0215  1.0000  -4.9949   0.0000   0.3199
  13.000   1.0435   0.04492   0.03910  -0.0905  0.0179  1.0000  -5.5533   0.0000   0.3155
  14.000   1.0563   0.05217   0.04655  -0.0895  0.0150  1.0000  -6.0669   0.0000   0.3117
  15.000   1.0659   0.06030   0.05498  -0.0893  0.0136  1.0000  -6.5606   0.0000   0.3087
  16.000   1.0716   0.06938   0.06438  -0.0896  0.0123  1.0000  -7.1067   0.0000   0.3064
  17.000   1.0696   0.07996   0.07526  -0.0904  0.0112  1.0000  -7.5892   0.0000   0.3052
  18.000   1.0556   0.09281   0.08843  -0.0916  0.0102  1.0000  -7.9342   0.0000   0.3052
  19.000   1.0384   0.10667   0.10267  -0.0940  0.0096  1.0000  -8.1998   0.0000   0.3065
  20.000   1.0231   0.12094   0.11732  -0.0980  0.0091  1.0000  -8.4431   0.0000   0.3094


