xflr5 v6.49

 Calculated polar for: Aerofoil8

 1 1 Reynolds number fixed          Mach number fixed         

 xtrf =   1.000 (top)        1.000 (bottom)
 Mach =   0.000     Re =     0.500 e 6     Ncrit =   5.000

  alpha     CL        CD       CDp       Cm    Top Xtr Bot Xtr   Cpmin    Chinge    XCp    
 ------- -------- --------- --------- -------- ------- ------- -------- --------- ---------
 -20.000  -0.6402   0.11308   0.11004   0.0196  1.0000  0.0239  -5.6253   0.0000   0.2523
 -19.000  -0.6901   0.09174   0.08842   0.0131  1.0000  0.0255  -6.0303   0.0000   0.2439
 -18.000  -0.7241   0.07461   0.07101   0.0078  1.0000  0.0269  -6.1833   0.0000   0.2384
 -17.000  -0.7506   0.05987   0.05598   0.0034  1.0000  0.0280  -6.2087   0.0000   0.2346
 -16.000  -0.7733   0.04710   0.04293   0.0002  1.0000  0.0290  -6.1506   0.0000   0.2327
 -15.000  -0.8034   0.03545   0.03105  -0.0006  1.0000  0.0308  -6.0856   0.0000   0.2340
 -14.000  -0.8237   0.02708   0.02248   0.0018  1.0000  0.0327  -5.8997   0.0000   0.2388
 -13.000  -0.7705   0.02083   0.01594  -0.0089  0.9783  0.0360  -5.3840   0.0000   0.2260
 -12.000  -0.7090   0.01674   0.01159  -0.0168  0.9320  0.0414  -4.8449   0.0000   0.2146
 -11.000  -0.6417   0.01485   0.00940  -0.0199  0.8864  0.0473  -4.2762   0.0000   0.2077
 -10.000  -0.5625   0.01335   0.00768  -0.0249  0.8503  0.0560  -3.6861   0.0000   0.1947
  -9.000  -0.4743   0.01205   0.00623  -0.0316  0.8187  0.0700  -3.1250   0.0000   0.1720
  -8.000  -0.3803   0.01098   0.00507  -0.0395  0.7896  0.0899  -2.6079   0.0000   0.1341
  -7.000  -0.2827   0.01009   0.00411  -0.0481  0.7617  0.1180  -2.1280   0.0000   0.0662
  -5.000  -0.0815   0.00874   0.00279  -0.0665  0.7072  0.2078  -1.3466   0.0000  -0.5981
  -4.000   0.0207   0.00831   0.00240  -0.0760  0.6798  0.2628  -1.0419   0.0000   4.0228
  -3.000   0.1233   0.00802   0.00216  -0.0856  0.6520  0.3206  -0.7955   0.0000   0.9557
  -2.000   0.2257   0.00788   0.00205  -0.0950  0.6231  0.3753  -0.6745   0.0000   0.6744
  -1.000   0.3277   0.00786   0.00205  -0.1044  0.5930  0.4264  -0.7643   0.0000   0.5686
   0.000   0.4288   0.00796   0.00216  -0.1135  0.5616  0.4735  -0.8641   0.0000   0.5128
   1.000   0.5292   0.00812   0.00237  -0.1224  0.5286  0.5197  -0.9786   0.0000   0.4781
   2.000   0.6276   0.00841   0.00269  -0.1309  0.4911  0.5623  -1.1142   0.0000   0.4541
   3.000   0.7235   0.00882   0.00313  -0.1387  0.4495  0.6062  -1.2878   0.0000   0.4363
   4.000   0.8154   0.00942   0.00370  -0.1457  0.3992  0.6490  -1.5208   0.0000   0.4221
   5.000   0.9006   0.01028   0.00450  -0.1512  0.3392  0.6931  -1.8111   0.0000   0.4102
   6.000   0.9767   0.01140   0.00554  -0.1546  0.2732  0.7438  -2.1473   0.0000   0.3995
   7.000   1.0373   0.01274   0.00682  -0.1542  0.2097  0.8094  -2.4980   0.0000   0.3888
   8.000   1.0644   0.01419   0.00835  -0.1460  0.1609  1.0000  -2.8073   0.0000   0.3761
   9.000   1.0986   0.01656   0.01059  -0.1414  0.1206  1.0000  -3.1544   0.0000   0.3665
  10.000   1.1293   0.01959   0.01359  -0.1375  0.0930  1.0000  -3.5273   0.0000   0.3582
  11.000   1.1564   0.02343   0.01744  -0.1342  0.0737  1.0000  -3.8967   0.0000   0.3512
  12.000   1.1811   0.02805   0.02216  -0.1320  0.0608  1.0000  -4.2703   0.0000   0.3454
  13.000   1.2003   0.03384   0.02808  -0.1304  0.0505  1.0000  -4.6654   0.0000   0.3407
  14.000   1.2137   0.04105   0.03545  -0.1296  0.0435  1.0000  -5.0369   0.0000   0.3373
  15.000   1.2260   0.04937   0.04401  -0.1302  0.0385  1.0000  -5.4026   0.0000   0.3350
  16.000   1.2287   0.05989   0.05477  -0.1317  0.0343  1.0000  -5.7145   0.0000   0.3341
  17.000   1.2306   0.07167   0.06682  -0.1347  0.0307  1.0000  -6.0139   0.0000   0.3345
  18.000   1.2179   0.08678   0.08220  -0.1387  0.0276  1.0000  -6.2064   0.0000   0.3369
  19.000   1.2139   0.10122   0.09698  -0.1442  0.0260  1.0000  -6.4662   0.0000   0.3397
  20.000   1.2046   0.11675   0.11281  -0.1505  0.0241  1.0000  -6.6706   0.0000   0.3437


