xflr5 v6.49

 Calculated polar for: Aerofoil41

 1 1 Reynolds number fixed          Mach number fixed         

 xtrf =   1.000 (top)        1.000 (bottom)
 Mach =   0.000     Re =     0.500 e 6     Ncrit =   5.000

  alpha     CL        CD       CDp       Cm    Top Xtr Bot Xtr   Cpmin    Chinge    XCp    
 ------- -------- --------- --------- -------- ------- ------- -------- --------- ---------
 -20.000  -0.4610   0.17252   0.16997   0.0303  1.0000  0.0107  -2.7226   0.0000   0.2826
 -19.000  -0.4415   0.16218   0.15964   0.0237  1.0000  0.0116  -2.6925   0.0000   0.2724
 -18.000  -0.6424   0.09832   0.09534   0.0132  1.0000  0.0158  -6.6475   0.0000   0.2456
 -17.000  -0.6979   0.07637   0.07307   0.0074  1.0000  0.0163  -7.1440   0.0000   0.2386
 -16.000  -0.7405   0.05859   0.05499   0.0028  1.0000  0.0169  -7.3449   0.0000   0.2344
 -15.000  -0.7738   0.04442   0.04051  -0.0001  1.0000  0.0176  -7.3429   0.0000   0.2329
 -14.000  -0.7972   0.03376   0.02954  -0.0004  1.0000  0.0185  -7.1681   0.0000   0.2346
 -13.000  -0.7921   0.02575   0.02122  -0.0032  0.9955  0.0198  -6.7725   0.0000   0.2329
 -12.000  -0.7391   0.01980   0.01488  -0.0134  0.9653  0.0218  -6.1394   0.0000   0.2198
 -11.000  -0.6897   0.01673   0.01152  -0.0154  0.9259  0.0255  -5.4811   0.0000   0.2165
 -10.000  -0.6275   0.01482   0.00930  -0.0172  0.8966  0.0300  -4.7755   0.0000   0.2121
  -9.000  -0.5497   0.01329   0.00755  -0.0220  0.8739  0.0363  -4.0300   0.0000   0.2000
  -8.000  -0.4644   0.01189   0.00602  -0.0284  0.8535  0.0489  -3.3128   0.0000   0.1791
  -7.000  -0.3731   0.01080   0.00480  -0.0359  0.8339  0.0682  -2.6895   0.0000   0.1440
  -6.000  -0.2782   0.00977   0.00380  -0.0443  0.8151  0.1050  -2.0973   0.0000   0.0803
  -5.000  -0.1812   0.00885   0.00302  -0.0531  0.7970  0.1669  -1.6104   0.0000  -0.0559
  -4.000  -0.0826   0.00814   0.00243  -0.0622  0.7778  0.2457  -1.1952   0.0000  -0.5249
  -3.000   0.0177   0.00763   0.00208  -0.0716  0.7579  0.3253  -0.8662   0.0000   4.3580
  -2.000   0.1187   0.00731   0.00188  -0.0811  0.7376  0.3957  -0.6199   0.0000   0.9389
  -1.000   0.2197   0.00714   0.00180  -0.0904  0.7159  0.4565  -0.5641   0.0000   0.6622
   0.000   0.3205   0.00708   0.00181  -0.0996  0.6922  0.5098  -0.6334   0.0000   0.5596
   1.000   0.4206   0.00712   0.00192  -0.1085  0.6651  0.5584  -0.7126   0.0000   0.5058
   2.000   0.5193   0.00721   0.00214  -0.1171  0.6315  0.6065  -0.8233   0.0000   0.4724
   3.000   0.6145   0.00750   0.00242  -0.1248  0.5770  0.6520  -1.0566   0.0000   0.4491
   4.000   0.7013   0.00814   0.00291  -0.1303  0.4845  0.7001  -1.3788   0.0000   0.4311
   5.000   0.7742   0.00946   0.00384  -0.1327  0.3418  0.7514  -1.7535   0.0000   0.4159
   6.000   0.8286   0.01128   0.00519  -0.1308  0.1895  0.8186  -2.1490   0.0000   0.4015
   7.000   0.8683   0.01266   0.00650  -0.1250  0.1099  1.0000  -2.5471   0.0000   0.3868
   8.000   0.9142   0.01444   0.00813  -0.1217  0.0712  1.0000  -3.0156   0.0000   0.3751
   9.000   0.9601   0.01645   0.01012  -0.1193  0.0498  1.0000  -3.5387   0.0000   0.3653
  10.000   1.0044   0.01882   0.01253  -0.1172  0.0385  1.0000  -4.0777   0.0000   0.3567
  11.000   1.0445   0.02169   0.01551  -0.1151  0.0308  1.0000  -4.6214   0.0000   0.3492
  12.000   1.0802   0.02521   0.01918  -0.1131  0.0260  1.0000  -5.2234   0.0000   0.3426
  13.000   1.1093   0.02962   0.02377  -0.1112  0.0223  1.0000  -5.8230   0.0000   0.3369
  14.000   1.1317   0.03516   0.02957  -0.1096  0.0201  1.0000  -6.3900   0.0000   0.3321
  15.000   1.1530   0.04154   0.03623  -0.1091  0.0179  1.0000  -6.9677   0.0000   0.3285
  16.000   1.1614   0.05019   0.04512  -0.1092  0.0159  1.0000  -7.4601   0.0000   0.3263
  17.000   1.1606   0.06122   0.05651  -0.1105  0.0149  1.0000  -7.8566   0.0000   0.3257
  18.000   1.1566   0.07420   0.06991  -0.1137  0.0141  1.0000  -8.2033   0.0000   0.3270
  19.000   1.1410   0.09054   0.08667  -0.1189  0.0133  1.0000  -8.4037   0.0000   0.3309
  20.000   1.1151   0.11001   0.10656  -0.1264  0.0126  1.0000  -8.4290   0.0000   0.3377


