xflr5 v6.49

 Calculated polar for: Aerofoil65

 1 1 Reynolds number fixed          Mach number fixed         

 xtrf =   1.000 (top)        1.000 (bottom)
 Mach =   0.000     Re =     0.500 e 6     Ncrit =   5.000

  alpha     CL        CD       CDp       Cm    Top Xtr Bot Xtr   Cpmin    Chinge    XCp    
 ------- -------- --------- --------- -------- ------- ------- -------- --------- ---------
 -20.000  -0.2810   0.16670   0.16421  -0.0237  0.9879  0.0099  -2.0226   0.0000   0.1045
 -19.000  -0.2461   0.15447   0.15197  -0.0353  0.9821  0.0094  -1.9748   0.0000   0.0424
 -18.000  -0.2192   0.13869   0.13617  -0.0472  0.9763  0.0098  -2.4109   0.0000  -0.0315
 -17.000  -0.2014   0.12590   0.12338  -0.0547  0.9687  0.0110  -2.5859   0.0000  -0.0880
 -16.000  -0.1852   0.11376   0.11124  -0.0612  0.9588  0.0119  -2.6462   0.0000  -0.1469
 -15.000  -0.4797   0.04055   0.03725  -0.0752  0.9489  0.0130  -7.7117   0.0000   0.0713
 -14.000  -0.4932   0.02810   0.02422  -0.0823  0.9326  0.0138  -7.5714   0.0000   0.0649
 -13.000  -0.4436   0.02151   0.01699  -0.0925  0.9208  0.0150  -6.8448   0.0000   0.0237
 -12.000  -0.4200   0.01775   0.01278  -0.0886  0.8987  0.0163  -6.2242   0.0000   0.0224
 -11.000  -0.3790   0.01580   0.01052  -0.0851  0.8800  0.0183  -5.4840   0.0000   0.0092
 -10.000  -0.3129   0.01411   0.00846  -0.0870  0.8637  0.0209  -4.7339   0.0000  -0.0453
  -9.000  -0.2482   0.01274   0.00690  -0.0880  0.8475  0.0257  -4.0083   0.0000  -0.1238
  -8.000  -0.1650   0.01152   0.00544  -0.0935  0.8336  0.0321  -3.2520   0.0000  -0.3426
  -7.000  -0.0880   0.01065   0.00449  -0.0972  0.8187  0.0434  -2.5634   0.0000  -0.8962
  -6.000   0.0017   0.00987   0.00360  -0.1041  0.8046  0.0646  -1.9615   0.0000  62.8158
  -5.000   0.0842   0.00922   0.00304  -0.1092  0.7900  0.1086  -1.4375   0.0000   1.5787
  -4.000   0.1735   0.00853   0.00256  -0.1162  0.7756  0.2068  -0.9999   0.0000   0.9325
  -3.000   0.2556   0.00787   0.00230  -0.1212  0.7594  0.3622  -0.6903   0.0000   0.7309
  -2.000   0.3410   0.00741   0.00222  -0.1270  0.7443  0.5280  -0.7399   0.0000   0.6257
  -1.000   0.4253   0.00718   0.00225  -0.1322  0.7272  0.6547  -0.7920   0.0000   0.5619
   0.000   0.5035   0.00712   0.00243  -0.1357  0.7101  0.7515  -0.8438   0.0000   0.5188
   1.000   0.5778   0.00712   0.00261  -0.1379  0.6917  0.8378  -0.8974   0.0000   0.4866
   2.000   0.6659   0.00734   0.00300  -0.1441  0.6714  0.9356  -0.9637   0.0000   0.4631
   3.000   0.7927   0.00784   0.00357  -0.1619  0.6499  0.9952  -1.0612   0.0000   0.4496
   4.000   0.8610   0.00827   0.00401  -0.1632  0.6235  1.0000  -1.3128   0.0000   0.4338
   5.000   0.8749   0.00925   0.00476  -0.1500  0.5500  1.0000  -1.5805   0.0000   0.4144
   6.000   0.8860   0.01108   0.00625  -0.1374  0.4577  1.0000  -1.8742   0.0000   0.3968
   7.000   0.8840   0.01445   0.00910  -0.1237  0.3204  1.0000  -2.1719   0.0000   0.3803
   8.000   0.8814   0.01915   0.01309  -0.1122  0.1596  1.0000  -2.4807   0.0000   0.3663
   9.000   0.9028   0.02327   0.01684  -0.1070  0.0736  1.0000  -2.8847   0.0000   0.3562
  10.000   0.9376   0.02696   0.02050  -0.1050  0.0440  1.0000  -3.4040   0.0000   0.3483
  11.000   0.9737   0.03082   0.02443  -0.1039  0.0306  1.0000  -3.9849   0.0000   0.3415
  12.000   1.0063   0.03521   0.02899  -0.1028  0.0239  1.0000  -4.5733   0.0000   0.3355
  13.000   1.0334   0.04030   0.03425  -0.1015  0.0194  1.0000  -5.1524   0.0000   0.3300
  14.000   1.0565   0.04602   0.04017  -0.1004  0.0160  1.0000  -5.7303   0.0000   0.3252
  15.000   1.0701   0.05298   0.04740  -0.0988  0.0142  1.0000  -6.2467   0.0000   0.3208
  16.000   1.0816   0.06046   0.05517  -0.0979  0.0127  1.0000  -6.8351   0.0000   0.3172
  17.000   1.0852   0.06914   0.06414  -0.0970  0.0114  1.0000  -7.3837   0.0000   0.3142
  18.000   1.0744   0.07982   0.07513  -0.0957  0.0104  1.0000  -7.7939   0.0000   0.3119
  19.000   1.0589   0.09143   0.08709  -0.0953  0.0098  1.0000  -8.1314   0.0000   0.3107
  20.000   1.0440   0.10380   0.09986  -0.0967  0.0092  1.0000  -8.4476   0.0000   0.3112


