xflr5 v6.49

 Calculated polar for: Aerofoil23

 1 1 Reynolds number fixed          Mach number fixed         

 xtrf =   1.000 (top)        1.000 (bottom)
 Mach =   0.000     Re =     0.500 e 6     Ncrit =   5.000

  alpha     CL        CD       CDp       Cm    Top Xtr Bot Xtr   Cpmin    Chinge    XCp    
 ------- -------- --------- --------- -------- ------- ------- -------- --------- ---------
 -20.000  -0.6735   0.08428   0.08071  -0.0068  1.0000  0.0282  -5.9970   0.0000   0.2079
 -19.000  -0.7084   0.06832   0.06447  -0.0111  1.0000  0.0291  -6.0837   0.0000   0.2059
 -18.000  -0.7445   0.05271   0.04859  -0.0155  0.9993  0.0308  -6.1292   0.0000   0.2043
 -17.000  -0.7394   0.03972   0.03530  -0.0251  0.9590  0.0329  -5.9282   0.0000   0.1936
 -16.000  -0.6611   0.03027   0.02544  -0.0468  0.9311  0.0361  -5.4101   0.0000   0.1571
 -15.000  -0.6142   0.02385   0.01861  -0.0561  0.8812  0.0402  -4.9838   0.0000   0.1374
 -14.000  -0.6051   0.02027   0.01469  -0.0508  0.8420  0.0437  -4.6651   0.0000   0.1466
 -13.000  -0.5873   0.01777   0.01187  -0.0447  0.8138  0.0471  -4.3091   0.0000   0.1558
 -12.000  -0.5631   0.01584   0.00977  -0.0383  0.7915  0.0528  -3.9306   0.0000   0.1650
 -11.000  -0.5267   0.01443   0.00817  -0.0332  0.7710  0.0602  -3.5364   0.0000   0.1707
 -10.000  -0.4792   0.01335   0.00691  -0.0297  0.7522  0.0693  -3.1447   0.0000   0.1719
  -9.000  -0.4275   0.01251   0.00600  -0.0268  0.7350  0.0822  -2.7550   0.0000   0.1714
  -8.000  -0.3587   0.01171   0.00515  -0.0281  0.7188  0.1016  -2.3493   0.0000   0.1550
  -7.000  -0.2817   0.01098   0.00442  -0.0314  0.7025  0.1290  -1.9763   0.0000   0.1203
  -6.000  -0.2002   0.01033   0.00384  -0.0358  0.6868  0.1667  -1.6277   0.0000   0.0493
  -5.000  -0.1156   0.00980   0.00334  -0.0410  0.6702  0.2156  -1.3166   0.0000  -0.1361
  -4.000  -0.0290   0.00929   0.00301  -0.0467  0.6551  0.2777  -1.0492   0.0000  -1.4576
  -3.000   0.0581   0.00890   0.00276  -0.0525  0.6385  0.3500  -0.8237   0.0000   1.1900
  -2.000   0.1458   0.00857   0.00262  -0.0585  0.6214  0.4290  -0.7755   0.0000   0.6603
  -1.000   0.2329   0.00834   0.00260  -0.0643  0.6051  0.5126  -0.8442   0.0000   0.5281
   0.000   0.3181   0.00821   0.00265  -0.0696  0.5867  0.5989  -0.9163   0.0000   0.4673
   1.000   0.4016   0.00811   0.00282  -0.0745  0.5687  0.6884  -0.9926   0.0000   0.4316
   2.000   0.4812   0.00812   0.00310  -0.0782  0.5499  0.7819  -1.0726   0.0000   0.4069
   3.000   0.5647   0.00834   0.00353  -0.0830  0.5292  0.8721  -1.1642   0.0000   0.3900
   4.000   0.6739   0.00898   0.00423  -0.0952  0.5050  0.9303  -1.2887   0.0000   0.3831
   5.000   0.7844   0.00983   0.00509  -0.1082  0.4761  0.9572  -1.4533   0.0000   0.3785
   6.000   0.8669   0.01088   0.00608  -0.1145  0.4381  0.9893  -1.6710   0.0000   0.3714
   7.000   0.9364   0.01250   0.00760  -0.1185  0.3900  1.0000  -1.9307   0.0000   0.3646
   8.000   0.9448   0.01473   0.00971  -0.1078  0.3441  1.0000  -2.1171   0.0000   0.3506
   9.000   0.9579   0.01802   0.01284  -0.1001  0.2909  1.0000  -2.3348   0.0000   0.3394
  10.000   0.9686   0.02239   0.01703  -0.0937  0.2335  1.0000  -2.5579   0.0000   0.3299
  11.000   0.9806   0.02749   0.02197  -0.0890  0.1805  1.0000  -2.8003   0.0000   0.3223
  12.000   0.9926   0.03332   0.02770  -0.0857  0.1372  1.0000  -3.0445   0.0000   0.3160
  13.000   1.0086   0.03939   0.03373  -0.0839  0.1074  1.0000  -3.3317   0.0000   0.3111
  14.000   1.0219   0.04625   0.04061  -0.0827  0.0847  1.0000  -3.6131   0.0000   0.3071
  15.000   1.0375   0.05326   0.04771  -0.0825  0.0701  1.0000  -3.9048   0.0000   0.3039
  16.000   1.0489   0.06115   0.05570  -0.0827  0.0587  1.0000  -4.1975   0.0000   0.3013
  17.000   1.0558   0.06992   0.06463  -0.0832  0.0502  1.0000  -4.4914   0.0000   0.2993
  18.000   1.0580   0.07961   0.07446  -0.0841  0.0437  1.0000  -4.7621   0.0000   0.2979
  19.000   1.0615   0.08946   0.08454  -0.0859  0.0393  1.0000  -5.0340   0.0000   0.2972
  20.000   1.0549   0.10089   0.09615  -0.0878  0.0350  1.0000  -5.2472   0.0000   0.2973


