xflr5 v6.49

 Calculated polar for: Aerofoil24

 1 1 Reynolds number fixed          Mach number fixed         

 xtrf =   1.000 (top)        1.000 (bottom)
 Mach =   0.000     Re =     0.500 e 6     Ncrit =   5.000

  alpha     CL        CD       CDp       Cm    Top Xtr Bot Xtr   Cpmin    Chinge    XCp    
 ------- -------- --------- --------- -------- ------- ------- -------- --------- ---------
 -20.000  -0.4435   0.15712   0.15461   0.0252  1.0000  0.0124  -2.6427   0.0000   0.2788
 -19.000  -0.6564   0.09110   0.08819   0.0110  1.0000  0.0167  -6.7085   0.0000   0.2518
 -18.000  -0.7325   0.06677   0.06351   0.0052  1.0000  0.0170  -7.4222   0.0000   0.2459
 -17.000  -0.8018   0.04759   0.04397   0.0026  1.0000  0.0173  -7.8394   0.0000   0.2451
 -16.000  -0.8543   0.03317   0.02919   0.0022  0.9995  0.0177  -7.9523   0.0000   0.2468
 -15.000  -0.8402   0.02411   0.01966  -0.0053  0.9875  0.0190  -7.4913   0.0000   0.2391
 -14.000  -0.7692   0.02014   0.01529  -0.0127  0.9758  0.0211  -6.6456   0.0000   0.2293
 -13.000  -0.6965   0.01715   0.01200  -0.0173  0.9640  0.0240  -5.8598   0.0000   0.2211
 -12.000  -0.6033   0.01514   0.00977  -0.0254  0.9528  0.0288  -4.9836   0.0000   0.2035
 -11.000  -0.4947   0.01318   0.00763  -0.0373  0.9465  0.0357  -4.1033   0.0000   0.1696
 -10.000  -0.4039   0.01180   0.00613  -0.0438  0.9317  0.0457  -3.3549   0.0000   0.1357
  -9.000  -0.2903   0.01047   0.00475  -0.0563  0.9216  0.0632  -2.6596   0.0000   0.0477
  -8.000  -0.1865   0.00946   0.00377  -0.0660  0.9043  0.0922  -2.0466   0.0000  -0.1171
  -7.000  -0.0760   0.00853   0.00291  -0.0776  0.8843  0.1413  -1.5342   0.0000  -0.8026
  -6.000   0.0266   0.00782   0.00232  -0.0871  0.8552  0.2087  -1.1214   0.0000   3.6049
  -5.000   0.1267   0.00734   0.00194  -0.0958  0.8182  0.2849  -0.7984   0.0000   1.0232
  -4.000   0.2250   0.00707   0.00171  -0.1041  0.7753  0.3632  -0.5535   0.0000   0.7207
  -3.000   0.3199   0.00700   0.00166  -0.1115  0.7263  0.4372  -0.6066   0.0000   0.6028
  -2.000   0.4125   0.00706   0.00175  -0.1183  0.6731  0.5085  -0.6969   0.0000   0.5388
  -1.000   0.5020   0.00728   0.00194  -0.1244  0.6152  0.5780  -0.8056   0.0000   0.4979
   0.000   0.5884   0.00761   0.00227  -0.1297  0.5514  0.6483  -0.9510   0.0000   0.4691
   1.000   0.6686   0.00809   0.00272  -0.1336  0.4765  0.7252  -1.1626   0.0000   0.4469
   2.000   0.7386   0.00868   0.00333  -0.1348  0.3890  0.8339  -1.4406   0.0000   0.4281
   3.000   0.8106   0.00967   0.00412  -0.1370  0.2896  1.0000  -1.8006   0.0000   0.4132
   4.000   0.8664   0.01106   0.00511  -0.1353  0.1972  1.0000  -2.1812   0.0000   0.3990
   5.000   0.9218   0.01266   0.00641  -0.1340  0.1257  1.0000  -2.6354   0.0000   0.3868
   6.000   0.9731   0.01436   0.00794  -0.1320  0.0811  1.0000  -3.1037   0.0000   0.3757
   7.000   1.0217   0.01619   0.00974  -0.1300  0.0567  1.0000  -3.6497   0.0000   0.3658
   8.000   1.0650   0.01837   0.01196  -0.1275  0.0424  1.0000  -4.2043   0.0000   0.3567
   9.000   1.1018   0.02104   0.01476  -0.1244  0.0340  1.0000  -4.7513   0.0000   0.3483
  10.000   1.1329   0.02437   0.01824  -0.1214  0.0278  1.0000  -5.2928   0.0000   0.3409
  11.000   1.1572   0.02861   0.02274  -0.1185  0.0243  1.0000  -5.8759   0.0000   0.3344
  12.000   1.1713   0.03433   0.02868  -0.1158  0.0213  1.0000  -6.4145   0.0000   0.3289
  13.000   1.1753   0.04199   0.03665  -0.1138  0.0194  1.0000  -6.8803   0.0000   0.3250
  14.000   1.1768   0.05123   0.04625  -0.1138  0.0178  1.0000  -7.3224   0.0000   0.3228
  15.000   1.1699   0.06294   0.05830  -0.1154  0.0162  1.0000  -7.6884   0.0000   0.3227
  16.000   1.1470   0.07875   0.07446  -0.1187  0.0149  1.0000  -7.8764   0.0000   0.3254
  17.000   1.1177   0.09732   0.09343  -0.1241  0.0142  1.0000  -7.9301   0.0000   0.3308
  18.000   1.0925   0.11604   0.11256  -0.1311  0.0137  1.0000  -7.9471   0.0000   0.3375
  19.000   1.0634   0.13558   0.13248  -0.1389  0.0131  1.0000  -7.8210   0.0000   0.3461
  20.000   1.0269   0.15658   0.15385  -0.1475  0.0125  1.0000  -7.4615   0.0000   0.3571


