xflr5 v6.49

 Calculated polar for: Aerofoil1

 1 1 Reynolds number fixed          Mach number fixed         

 xtrf =   1.000 (top)        1.000 (bottom)
 Mach =   0.000     Re =     0.500 e 6     Ncrit =   5.000

  alpha     CL        CD       CDp       Cm    Top Xtr Bot Xtr   Cpmin    Chinge    XCp    
 ------- -------- --------- --------- -------- ------- ------- -------- --------- ---------
 -20.000  -0.4208   0.17944   0.17690   0.0256  1.0000  0.0114  -2.3279   0.0000   0.2707
 -19.000  -0.4024   0.16773   0.16518   0.0184  1.0000  0.0124  -2.4326   0.0000   0.2574
 -18.000  -0.4129   0.14709   0.14455   0.0114  1.0000  0.0153  -3.1859   0.0000   0.2421
 -17.000  -0.6441   0.08359   0.08048   0.0026  1.0000  0.0189  -6.6692   0.0000   0.2271
 -16.000  -0.7074   0.06196   0.05846  -0.0025  1.0000  0.0194  -7.1417   0.0000   0.2230
 -15.000  -0.7533   0.04580   0.04194  -0.0055  1.0000  0.0200  -7.3037   0.0000   0.2222
 -14.000  -0.7847   0.03430   0.03010  -0.0053  1.0000  0.0205  -7.2398   0.0000   0.2253
 -13.000  -0.7515   0.02486   0.02025  -0.0171  0.9807  0.0223  -6.7738   0.0000   0.2110
 -12.000  -0.6844   0.01985   0.01495  -0.0285  0.9469  0.0253  -6.0529   0.0000   0.1931
 -11.000  -0.6342   0.01706   0.01174  -0.0300  0.8987  0.0277  -5.4138   0.0000   0.1883
 -10.000  -0.5991   0.01527   0.00966  -0.0249  0.8609  0.0313  -4.8531   0.0000   0.1951
  -9.000  -0.5315   0.01395   0.00804  -0.0270  0.8338  0.0360  -4.1972   0.0000   0.1866
  -8.000  -0.4551   0.01268   0.00659  -0.0309  0.8094  0.0444  -3.5857   0.0000   0.1696
  -7.000  -0.3708   0.01162   0.00539  -0.0366  0.7878  0.0553  -2.9808   0.0000   0.1388
  -6.000  -0.2826   0.01067   0.00439  -0.0432  0.7674  0.0753  -2.4113   0.0000   0.0840
  -5.000  -0.1910   0.00991   0.00360  -0.0504  0.7468  0.1064  -1.9227   0.0000  -0.0294
  -4.000  -0.0980   0.00922   0.00294  -0.0581  0.7252  0.1566  -1.4848   0.0000  -0.3649
  -3.000  -0.0034   0.00859   0.00248  -0.0661  0.7046  0.2301  -1.1151   0.0000  -19.8696
  -2.000   0.0923   0.00809   0.00219  -0.0743  0.6841  0.3191  -0.8140   0.0000   1.0642
  -1.000   0.1886   0.00778   0.00203  -0.0825  0.6630  0.4097  -0.6556   0.0000   0.6887
   0.000   0.2848   0.00761   0.00199  -0.0906  0.6407  0.4959  -0.7273   0.0000   0.5668
   1.000   0.3805   0.00753   0.00207  -0.0986  0.6171  0.5757  -0.8047   0.0000   0.5061
   2.000   0.4755   0.00756   0.00225  -0.1062  0.5929  0.6489  -0.8895   0.0000   0.4695
   3.000   0.5679   0.00768   0.00251  -0.1132  0.5663  0.7198  -0.9830   0.0000   0.4446
   4.000   0.6557   0.00786   0.00288  -0.1188  0.5368  0.7952  -1.0909   0.0000   0.4257
   5.000   0.7365   0.00807   0.00331  -0.1224  0.5021  0.8926  -1.2570   0.0000   0.4100
   6.000   0.8407   0.00880   0.00397  -0.1330  0.4422  1.0000  -1.5777   0.0000   0.4013
   7.000   0.8827   0.00978   0.00471  -0.1271  0.3764  1.0000  -1.8617   0.0000   0.3863
   8.000   0.9066   0.01136   0.00602  -0.1177  0.2998  1.0000  -2.1423   0.0000   0.3712
   9.000   0.9229   0.01380   0.00813  -0.1081  0.2162  1.0000  -2.4384   0.0000   0.3576
  10.000   0.9399   0.01693   0.01099  -0.1003  0.1454  1.0000  -2.7512   0.0000   0.3462
  11.000   0.9612   0.02045   0.01436  -0.0948  0.0979  1.0000  -3.0985   0.0000   0.3370
  12.000   0.9854   0.02437   0.01827  -0.0909  0.0697  1.0000  -3.4963   0.0000   0.3296
  13.000   1.0102   0.02881   0.02275  -0.0883  0.0529  1.0000  -3.9074   0.0000   0.3235
  14.000   1.0333   0.03391   0.02796  -0.0865  0.0427  1.0000  -4.3203   0.0000   0.3185
  15.000   1.0526   0.03993   0.03413  -0.0853  0.0350  1.0000  -4.7333   0.0000   0.3145
  16.000   1.0681   0.04690   0.04126  -0.0848  0.0297  1.0000  -5.1775   0.0000   0.3114
  17.000   1.0794   0.05501   0.04964  -0.0851  0.0265  1.0000  -5.5992   0.0000   0.3093
  18.000   1.0859   0.06437   0.05923  -0.0862  0.0235  1.0000  -5.9934   0.0000   0.3082
  19.000   1.0820   0.07597   0.07109  -0.0882  0.0212  1.0000  -6.3061   0.0000   0.3085
  20.000   1.0831   0.08766   0.08310  -0.0917  0.0194  1.0000  -6.6433   0.0000   0.3097


