xflr5 v6.49

 Calculated polar for: Aerofoil18

 1 1 Reynolds number fixed          Mach number fixed         

 xtrf =   1.000 (top)        1.000 (bottom)
 Mach =   0.000     Re =     0.500 e 6     Ncrit =   5.000

  alpha     CL        CD       CDp       Cm    Top Xtr Bot Xtr   Cpmin    Chinge    XCp    
 ------- -------- --------- --------- -------- ------- ------- -------- --------- ---------
 -20.000  -0.3811   0.17873   0.17625   0.0124  1.0000  0.0094  -2.0616   0.0000   0.2426
 -19.000  -0.3614   0.16798   0.16552   0.0061  1.0000  0.0091  -2.0924   0.0000   0.2283
 -18.000  -0.3514   0.15366   0.15123   0.0000  1.0000  0.0097  -2.6038   0.0000   0.2135
 -17.000  -0.3373   0.14251   0.14012  -0.0054  1.0000  0.0107  -2.6922   0.0000   0.1992
 -16.000  -0.3264   0.13117   0.12881  -0.0101  1.0000  0.0116  -2.7564   0.0000   0.1864
 -15.000  -0.5928   0.05834   0.05535  -0.0218  0.9971  0.0137  -7.5668   0.0000   0.1920
 -14.000  -0.6169   0.03847   0.03492  -0.0367  0.9639  0.0142  -7.7499   0.0000   0.1723
 -13.000  -0.5854   0.02701   0.02284  -0.0524  0.9273  0.0149  -7.2602   0.0000   0.1439
 -12.000  -0.6160   0.02101   0.01632  -0.0433  0.8790  0.0158  -7.0375   0.0000   0.1658
 -11.000  -0.6136   0.01836   0.01330  -0.0332  0.8523  0.0172  -6.4995   0.0000   0.1834
 -10.000  -0.5578   0.01626   0.01082  -0.0338  0.8339  0.0195  -5.7082   0.0000   0.1777
  -9.000  -0.4856   0.01429   0.00856  -0.0377  0.8183  0.0228  -4.9207   0.0000   0.1610
  -8.000  -0.4016   0.01294   0.00695  -0.0438  0.8045  0.0280  -4.0958   0.0000   0.1294
  -7.000  -0.3132   0.01163   0.00547  -0.0509  0.7898  0.0361  -3.3123   0.0000   0.0753
  -6.000  -0.2209   0.01059   0.00432  -0.0588  0.7771  0.0524  -2.5937   0.0000  -0.0301
  -5.000  -0.1257   0.00971   0.00345  -0.0673  0.7627  0.0832  -1.9863   0.0000  -0.3051
  -4.000  -0.0293   0.00893   0.00278  -0.0761  0.7496  0.1449  -1.4477   0.0000  -2.4120
  -3.000   0.0682   0.00821   0.00232  -0.0853  0.7356  0.2468  -1.0115   0.0000   1.5198
  -2.000   0.1665   0.00770   0.00204  -0.0945  0.7215  0.3621  -0.6730   0.0000   0.8220
  -1.000   0.2656   0.00738   0.00195  -0.1037  0.7064  0.4657  -0.6690   0.0000   0.6414
   0.000   0.3646   0.00723   0.00198  -0.1128  0.6919  0.5535  -0.7301   0.0000   0.5586
   1.000   0.4630   0.00717   0.00210  -0.1217  0.6752  0.6289  -0.7948   0.0000   0.5108
   2.000   0.5603   0.00720   0.00234  -0.1302  0.6585  0.6994  -0.8633   0.0000   0.4794
   3.000   0.6554   0.00729   0.00262  -0.1380  0.6396  0.7696  -0.9368   0.0000   0.4569
   4.000   0.7456   0.00741   0.00300  -0.1444  0.6169  0.8504  -1.1418   0.0000   0.4392
   5.000   0.8302   0.00781   0.00336  -0.1495  0.5352  1.0000  -1.5286   0.0000   0.4246
   6.000   0.8795   0.00912   0.00425  -0.1459  0.4209  1.0000  -1.9215   0.0000   0.4097
   7.000   0.8632   0.01185   0.00630  -0.1271  0.2627  1.0000  -2.1589   0.0000   0.3901
   8.000   0.8660   0.01535   0.00920  -0.1155  0.1266  1.0000  -2.4843   0.0000   0.3753
   9.000   0.8941   0.01842   0.01204  -0.1105  0.0670  1.0000  -2.9139   0.0000   0.3644
  10.000   0.9319   0.02141   0.01501  -0.1081  0.0442  1.0000  -3.4008   0.0000   0.3558
  11.000   0.9705   0.02467   0.01834  -0.1065  0.0318  1.0000  -3.9907   0.0000   0.3485
  12.000   1.0064   0.02849   0.02231  -0.1052  0.0254  1.0000  -4.5944   0.0000   0.3422
  13.000   1.0361   0.03318   0.02713  -0.1038  0.0209  1.0000  -5.1835   0.0000   0.3366
  14.000   1.0679   0.03817   0.03235  -0.1035  0.0175  1.0000  -5.8130   0.0000   0.3320
  15.000   1.0883   0.04474   0.03913  -0.1028  0.0151  1.0000  -6.3732   0.0000   0.3282
  16.000   1.1100   0.05185   0.04653  -0.1033  0.0137  1.0000  -6.9507   0.0000   0.3253
  17.000   1.1242   0.06049   0.05550  -0.1044  0.0124  1.0000  -7.5317   0.0000   0.3235
  18.000   1.1296   0.07115   0.06646  -0.1063  0.0113  1.0000  -8.0766   0.0000   0.3229
  19.000   1.1164   0.08562   0.08131  -0.1091  0.0104  1.0000  -8.3989   0.0000   0.3246
  20.000   1.1080   0.10041   0.09655  -0.1140  0.0100  1.0000  -8.7401   0.0000   0.3277


