xflr5 v6.49

 Calculated polar for: Aerofoil53

 1 1 Reynolds number fixed          Mach number fixed         

 xtrf =   1.000 (top)        1.000 (bottom)
 Mach =   0.000     Re =     0.500 e 6     Ncrit =   5.000

  alpha     CL        CD       CDp       Cm    Top Xtr Bot Xtr   Cpmin    Chinge    XCp    
 ------- -------- --------- --------- -------- ------- ------- -------- --------- ---------
 -20.000  -0.3548   0.15502   0.15257   0.0095  1.0000  0.0108  -2.5283   0.0000   0.2376
 -19.000  -0.3312   0.14591   0.14348   0.0035  1.0000  0.0117  -2.3811   0.0000   0.2218
 -18.000  -0.3155   0.13433   0.13192  -0.0024  1.0000  0.0126  -2.4478   0.0000   0.2054
 -17.000  -0.5829   0.06413   0.06126  -0.0140  1.0000  0.0157  -7.0939   0.0000   0.2106
 -16.000  -0.6732   0.03721   0.03378  -0.0252  0.9975  0.0156  -7.9627   0.0000   0.2024
 -15.000  -0.6635   0.02398   0.01986  -0.0391  0.9485  0.0166  -7.6804   0.0000   0.1830
 -14.000  -0.6362   0.02007   0.01543  -0.0363  0.8876  0.0179  -7.0827   0.0000   0.1855
 -13.000  -0.6017   0.01792   0.01285  -0.0308  0.8511  0.0196  -6.4512   0.0000   0.1918
 -12.000  -0.5407   0.01599   0.01049  -0.0307  0.8241  0.0215  -5.7057   0.0000   0.1861
 -11.000  -0.4693   0.01423   0.00844  -0.0329  0.8001  0.0254  -4.9303   0.0000   0.1724
 -10.000  -0.3876   0.01296   0.00685  -0.0371  0.7781  0.0291  -4.1474   0.0000   0.1457
  -9.000  -0.3023   0.01171   0.00543  -0.0423  0.7579  0.0360  -3.3964   0.0000   0.0998
  -8.000  -0.2125   0.01081   0.00437  -0.0485  0.7378  0.0463  -2.7501   0.0000   0.0080
  -7.000  -0.1210   0.01003   0.00352  -0.0551  0.7180  0.0641  -2.1555   0.0000  -0.2287
  -6.000  -0.0275   0.00943   0.00287  -0.0623  0.6979  0.0937  -1.6253   0.0000  -2.1113
  -5.000   0.0665   0.00886   0.00242  -0.0698  0.6786  0.1489  -1.1787   0.0000   1.3339
  -4.000   0.1606   0.00838   0.00212  -0.0774  0.6590  0.2380  -0.8156   0.0000   0.7444
  -3.000   0.2535   0.00793   0.00195  -0.0848  0.6380  0.3742  -0.7172   0.0000   0.5908
  -2.000   0.3447   0.00746   0.00195  -0.0918  0.6170  0.5578  -0.7894   0.0000   0.5193
  -1.000   0.4314   0.00702   0.00212  -0.0973  0.5961  0.7817  -0.8644   0.0000   0.4763
   0.000   0.5507   0.00712   0.00246  -0.1116  0.5734  0.9402  -0.9674   0.0000   0.4514
   1.000   0.6771   0.00751   0.00277  -0.1285  0.5481  0.9831  -1.0854   0.0000   0.4370
   2.000   0.7991   0.00794   0.00316  -0.1446  0.5197  1.0000  -1.2182   0.0000   0.4266
   3.000   0.8698   0.00843   0.00359  -0.1466  0.4887  1.0000  -1.3848   0.0000   0.4128
   4.000   0.9336   0.00915   0.00422  -0.1470  0.4417  1.0000  -1.6989   0.0000   0.4001
   5.000   0.9689   0.01027   0.00512  -0.1400  0.3753  1.0000  -2.0179   0.0000   0.3858
   6.000   0.9845   0.01197   0.00662  -0.1291  0.3024  1.0000  -2.3352   0.0000   0.3709
   7.000   0.9943   0.01501   0.00931  -0.1193  0.2124  1.0000  -2.6467   0.0000   0.3582
   8.000   1.0054   0.01917   0.01315  -0.1122  0.1290  1.0000  -3.0082   0.0000   0.3481
   9.000   1.0227   0.02381   0.01762  -0.1080  0.0770  1.0000  -3.4008   0.0000   0.3404
  11.000   1.0679   0.03408   0.02802  -0.1047  0.0388  1.0000  -4.2948   0.0000   0.3292
  12.000   1.0869   0.04023   0.03433  -0.1039  0.0305  1.0000  -4.7880   0.0000   0.3249
  13.000   1.0999   0.04746   0.04177  -0.1033  0.0256  1.0000  -5.2558   0.0000   0.3213
  14.000   1.1088   0.05549   0.05001  -0.1031  0.0219  1.0000  -5.7087   0.0000   0.3184
  15.000   1.1091   0.06490   0.05967  -0.1029  0.0192  1.0000  -6.1067   0.0000   0.3161
  16.000   1.1072   0.07490   0.06996  -0.1031  0.0170  1.0000  -6.4905   0.0000   0.3143
  17.000   1.0941   0.08646   0.08176  -0.1031  0.0153  1.0000  -6.7826   0.0000   0.3133
  18.000   1.0746   0.09917   0.09476  -0.1036  0.0142  1.0000  -6.9925   0.0000   0.3132
  19.000   1.0616   0.11166   0.10757  -0.1058  0.0133  1.0000  -7.2314   0.0000   0.3143
  20.000   1.0483   0.12513   0.12135  -0.1099  0.0124  1.0000  -7.4660   0.0000   0.3171


