xflr5 v6.49

 Calculated polar for: Aerofoil93

 1 1 Reynolds number fixed          Mach number fixed         

 xtrf =   1.000 (top)        1.000 (bottom)
 Mach =   0.000     Re =     0.500 e 6     Ncrit =   5.000

  alpha     CL        CD       CDp       Cm    Top Xtr Bot Xtr   Cpmin    Chinge    XCp    
 ------- -------- --------- --------- -------- ------- ------- -------- --------- ---------
 -20.000  -0.6303   0.08714   0.08381  -0.0126  1.0000  0.0239  -6.2565   0.0000   0.1967
 -19.000  -0.6739   0.06964   0.06604  -0.0171  1.0000  0.0251  -6.4431   0.0000   0.1956
 -17.000  -0.6518   0.04096   0.03659  -0.0430  0.9435  0.0282  -6.0465   0.0000   0.1595
 -16.000  -0.5835   0.03029   0.02550  -0.0651  0.9136  0.0311  -5.5224   0.0000   0.1143
 -15.000  -0.5681   0.02468   0.01947  -0.0658  0.8655  0.0337  -5.1620   0.0000   0.1119
 -14.000  -0.5584   0.02097   0.01539  -0.0612  0.8330  0.0362  -4.8372   0.0000   0.1201
 -13.000  -0.5474   0.01803   0.01218  -0.0547  0.8075  0.0400  -4.4987   0.0000   0.1315
 -12.000  -0.5225   0.01605   0.01001  -0.0489  0.7865  0.0447  -4.1047   0.0000   0.1389
 -11.000  -0.4925   0.01449   0.00827  -0.0427  0.7677  0.0503  -3.7003   0.0000   0.1466
 -10.000  -0.4518   0.01350   0.00707  -0.0376  0.7500  0.0580  -3.2693   0.0000   0.1504
  -9.000  -0.3904   0.01253   0.00605  -0.0375  0.7339  0.0709  -2.8248   0.0000   0.1372
  -8.000  -0.3168   0.01170   0.00515  -0.0402  0.7195  0.0901  -2.3871   0.0000   0.1048
  -7.000  -0.2368   0.01092   0.00438  -0.0445  0.7035  0.1189  -1.9643   0.0000   0.0408
  -6.000  -0.1529   0.01022   0.00376  -0.0498  0.6898  0.1630  -1.5944   0.0000  -0.1037
  -5.000  -0.0668   0.00957   0.00324  -0.0557  0.6743  0.2274  -1.2644   0.0000  -0.6372
  -4.000   0.0217   0.00903   0.00290  -0.0621  0.6599  0.3065  -0.9800   0.0000   3.2480
  -3.000   0.1109   0.00861   0.00266  -0.0687  0.6446  0.3938  -0.7516   0.0000   0.8881
  -2.000   0.2016   0.00833   0.00259  -0.0757  0.6300  0.4778  -0.8171   0.0000   0.6316
  -1.000   0.2922   0.00822   0.00257  -0.0825  0.6133  0.5547  -0.8859   0.0000   0.5338
   0.000   0.3822   0.00814   0.00270  -0.0893  0.5980  0.6238  -0.9575   0.0000   0.4821
   1.000   0.4699   0.00820   0.00289  -0.0954  0.5820  0.6879  -1.0324   0.0000   0.4495
   2.000   0.5527   0.00830   0.00315  -0.1003  0.5639  0.7504  -1.1094   0.0000   0.4263
   3.000   0.6284   0.00846   0.00352  -0.1032  0.5462  0.8145  -1.1877   0.0000   0.4077
   4.000   0.6885   0.00872   0.00399  -0.1020  0.5272  0.8920  -1.2628   0.0000   0.3902
   5.000   0.8062   0.00951   0.00488  -0.1171  0.5036  0.9508  -1.3972   0.0000   0.3862
   6.000   0.9034   0.01052   0.00590  -0.1274  0.4714  0.9963  -1.6474   0.0000   0.3807
   7.000   0.9372   0.01211   0.00737  -0.1221  0.4253  1.0000  -1.8737   0.0000   0.3685
   8.000   0.9572   0.01444   0.00958  -0.1144  0.3757  1.0000  -2.1037   0.0000   0.3562
   9.000   0.9682   0.01803   0.01299  -0.1067  0.3153  1.0000  -2.3397   0.0000   0.3452
  10.000   0.9733   0.02293   0.01767  -0.0996  0.2450  1.0000  -2.5668   0.0000   0.3356
  11.000   0.9730   0.02909   0.02356  -0.0933  0.1753  1.0000  -2.7994   0.0000   0.3274
  12.000   0.9822   0.03531   0.02963  -0.0898  0.1247  1.0000  -3.0679   0.0000   0.3211
  13.000   0.9946   0.04188   0.03614  -0.0878  0.0910  1.0000  -3.3490   0.0000   0.3162
  14.000   1.0113   0.04848   0.04278  -0.0870  0.0709  1.0000  -3.6650   0.0000   0.3122
  15.000   1.0259   0.05567   0.05004  -0.0868  0.0561  1.0000  -3.9982   0.0000   0.3089
  16.000   1.0388   0.06337   0.05787  -0.0870  0.0471  1.0000  -4.3277   0.0000   0.3062
  17.000   1.0479   0.07183   0.06650  -0.0875  0.0408  1.0000  -4.6423   0.0000   0.3040
  18.000   1.0507   0.08124   0.07606  -0.0882  0.0350  1.0000  -4.9275   0.0000   0.3024
  19.000   1.0563   0.09057   0.08561  -0.0897  0.0311  1.0000  -5.2254   0.0000   0.3013
  20.000   1.0489   0.10178   0.09702  -0.0912  0.0277  1.0000  -5.4806   0.0000   0.3011


