xflr5 v6.49

 Calculated polar for: Aerofoil12

 1 1 Reynolds number fixed          Mach number fixed         

 xtrf =   1.000 (top)        1.000 (bottom)
 Mach =   0.000     Re =     0.500 e 6     Ncrit =   5.000

  alpha     CL        CD       CDp       Cm    Top Xtr Bot Xtr   Cpmin    Chinge    XCp    
 ------- -------- --------- --------- -------- ------- ------- -------- --------- ---------
 -20.000  -0.4123   0.19410   0.19174   0.0218  1.0000  0.0070  -1.4869   0.0000   0.2701
 -19.000  -0.3749   0.18255   0.18017   0.0100  0.9981  0.0077  -1.4563   0.0000   0.2441
 -18.000  -0.3393   0.17033   0.16793  -0.0015  0.9954  0.0096  -1.5592   0.0000   0.2133
 -17.000  -0.3045   0.15724   0.15483  -0.0126  0.9912  0.0073  -1.7058   0.0000   0.1760
 -16.000  -0.2709   0.14459   0.14216  -0.0232  0.9862  0.0082  -1.8169   0.0000   0.1309
 -14.000  -0.2038   0.11763   0.11516  -0.0460  0.9759  0.0093  -1.9477   0.0000  -0.0127
 -13.000  -0.1823   0.10486   0.10240  -0.0537  0.9691  0.0088  -2.0774   0.0000  -0.0817
 -12.000  -0.1768   0.09053   0.08810  -0.0588  0.9580  0.0090  -2.6360   0.0000  -0.1174
 -11.000  -0.3353   0.03811   0.03554  -0.0780  0.9433  0.0096  -7.1338   0.0000   0.0007
 -10.000  -0.3361   0.02106   0.01730  -0.0928  0.9214  0.0099  -7.3004   0.0000  -0.0400
  -9.000  -0.2745   0.01594   0.01138  -0.0972  0.9059  0.0112  -6.4116   0.0000  -0.1184
  -8.000  -0.1826   0.01358   0.00854  -0.1061  0.8944  0.0142  -5.1742   0.0000  -0.3496
  -7.000  -0.0951   0.01144   0.00602  -0.1132  0.8812  0.0178  -4.0870   0.0000  -0.9712
  -6.000  -0.0001   0.01010   0.00442  -0.1218  0.8683  0.0252  -3.1087   0.0000  -862.5517
  -5.000   0.0958   0.00915   0.00330  -0.1304  0.8558  0.0395  -2.2722   0.0000   1.6328
  -4.000   0.1917   0.00841   0.00255  -0.1390  0.8411  0.0783  -1.5158   0.0000   0.9836
  -3.000   0.2879   0.00780   0.00212  -0.1477  0.8271  0.1659  -0.9477   0.0000   0.7674
  -2.000   0.3846   0.00732   0.00187  -0.1565  0.8113  0.2918  -0.6388   0.0000   0.6590
  -1.000   0.4783   0.00703   0.00187  -0.1643  0.7952  0.4251  -0.6884   0.0000   0.5943
   0.000   0.5751   0.00682   0.00194  -0.1729  0.7779  0.5654  -0.7434   0.0000   0.5503
   1.000   0.6627   0.00659   0.00218  -0.1789  0.7582  0.7425  -0.7973   0.0000   0.5185
   2.000   0.7578   0.00645   0.00245  -0.1867  0.7372  1.0000  -0.8615   0.0000   0.4940
   3.000   0.8456   0.00676   0.00280  -0.1927  0.7112  1.0000  -1.2138   0.0000   0.4746
   4.000   0.8798   0.00760   0.00309  -0.1834  0.5792  1.0000  -1.6203   0.0000   0.4543
   5.000   0.8781   0.00983   0.00449  -0.1659  0.3835  1.0000  -1.9607   0.0000   0.4339
   6.000   0.8771   0.01341   0.00696  -0.1509  0.1271  1.0000  -2.3465   0.0000   0.4161
   7.000   0.9157   0.01588   0.00908  -0.1463  0.0442  1.0000  -2.9780   0.0000   0.4029
   8.000   0.9640   0.01805   0.01130  -0.1443  0.0251  1.0000  -3.7058   0.0000   0.3917
   9.000   1.0092   0.02059   0.01395  -0.1421  0.0167  1.0000  -4.4559   0.0000   0.3818
  10.000   1.0493   0.02370   0.01728  -0.1395  0.0130  1.0000  -5.3096   0.0000   0.3728
  11.000   1.0807   0.02781   0.02162  -0.1360  0.0103  1.0000  -6.1785   0.0000   0.3646
  12.000   1.1138   0.03222   0.02637  -0.1337  0.0090  1.0000  -7.0940   0.0000   0.3575
  13.000   1.1457   0.03706   0.03150  -0.1322  0.0074  1.0000  -8.0914   0.0000   0.3516
  14.000   1.1612   0.04421   0.03905  -0.1295  0.0065  1.0000  -8.9028   0.0000   0.3463
  15.000   1.1678   0.05328   0.04864  -0.1274  0.0061  1.0000  -9.5886   0.0000   0.3423
  16.000   1.1616   0.06486   0.06083  -0.1264  0.0057  1.0000  -10.1299   0.0000   0.3403
  17.000   1.1332   0.08148   0.07812  -0.1272  0.0054  1.0000  -10.3150   0.0000   0.3419
  18.000   1.0799   0.10552   0.10282  -0.1328  0.0053  1.0000  -9.9722   0.0000   0.3504
  20.000   0.8712   0.20032   0.19818  -0.1618  0.0050  1.0000  -3.0695   0.0000   0.4097


