xflr5 v6.49

 Calculated polar for: Aerofoil40

 1 1 Reynolds number fixed          Mach number fixed         

 xtrf =   1.000 (top)        1.000 (bottom)
 Mach =   0.000     Re =     0.500 e 6     Ncrit =   5.000

  alpha     CL        CD       CDp       Cm    Top Xtr Bot Xtr   Cpmin    Chinge    XCp    
 ------- -------- --------- --------- -------- ------- ------- -------- --------- ---------
 -19.000  -0.6384   0.09956   0.09649   0.0151  1.0000  0.0226  -5.9350   0.0000   0.2499
 -18.000  -0.6959   0.07747   0.07414   0.0085  1.0000  0.0238  -6.4093   0.0000   0.2419
 -17.000  -0.7447   0.05877   0.05514   0.0031  1.0000  0.0249  -6.6751   0.0000   0.2367
 -16.000  -0.7872   0.04334   0.03940  -0.0006  1.0000  0.0259  -6.7874   0.0000   0.2344
 -15.000  -0.8159   0.03133   0.02707  -0.0024  1.0000  0.0270  -6.7231   0.0000   0.2344
 -14.000  -0.8340   0.02324   0.01865  -0.0006  0.9990  0.0281  -6.5159   0.0000   0.2384
 -13.000  -0.7724   0.01856   0.01364  -0.0089  0.9563  0.0311  -5.8661   0.0000   0.2283
 -12.000  -0.6949   0.01620   0.01098  -0.0148  0.9094  0.0353  -5.1606   0.0000   0.2188
 -11.000  -0.6232   0.01447   0.00898  -0.0177  0.8683  0.0410  -4.5425   0.0000   0.2120
 -10.000  -0.5403   0.01312   0.00734  -0.0227  0.8357  0.0477  -3.9098   0.0000   0.1983
  -9.000  -0.4512   0.01195   0.00598  -0.0291  0.8065  0.0582  -3.2871   0.0000   0.1755
  -7.000  -0.2618   0.01013   0.00395  -0.0442  0.7518  0.0959  -2.2240   0.0000   0.0683
  -6.000  -0.1639   0.00943   0.00322  -0.0525  0.7251  0.1281  -1.7768   0.0000  -0.0876
  -5.000  -0.0647   0.00887   0.00269  -0.0611  0.6984  0.1714  -1.3855   0.0000  -0.7299
  -4.000   0.0351   0.00842   0.00229  -0.0699  0.6714  0.2254  -1.0581   0.0000   2.2925
  -3.000   0.1354   0.00812   0.00205  -0.0787  0.6437  0.2864  -0.7889   0.0000   0.8414
  -2.000   0.2356   0.00794   0.00194  -0.0876  0.6150  0.3522  -0.6806   0.0000   0.6250
  -1.000   0.3356   0.00786   0.00195  -0.0964  0.5857  0.4188  -0.7714   0.0000   0.5376
   0.000   0.4349   0.00787   0.00208  -0.1051  0.5548  0.4867  -0.8723   0.0000   0.4901
   1.000   0.5330   0.00800   0.00230  -0.1135  0.5209  0.5547  -0.9875   0.0000   0.4599
   2.000   0.6283   0.00825   0.00264  -0.1213  0.4833  0.6266  -1.1235   0.0000   0.4387
   3.000   0.7212   0.00856   0.00311  -0.1284  0.4415  0.7080  -1.2970   0.0000   0.4226
   4.000   0.8065   0.00898   0.00369  -0.1336  0.3924  0.8165  -1.5248   0.0000   0.4090
   5.000   0.8899   0.00967   0.00440  -0.1385  0.3340  1.0000  -1.8200   0.0000   0.3979
   6.000   0.9626   0.01092   0.00541  -0.1413  0.2689  1.0000  -2.1586   0.0000   0.3879
   7.000   1.0140   0.01243   0.00667  -0.1390  0.2076  1.0000  -2.5023   0.0000   0.3769
   8.000   1.0463   0.01436   0.00844  -0.1328  0.1575  1.0000  -2.8273   0.0000   0.3656
   9.000   1.0755   0.01688   0.01085  -0.1274  0.1182  1.0000  -3.1846   0.0000   0.3558
  10.000   1.1014   0.02013   0.01406  -0.1229  0.0894  1.0000  -3.5478   0.0000   0.3476
  11.000   1.1269   0.02402   0.01801  -0.1197  0.0713  1.0000  -3.9171   0.0000   0.3407
  12.000   1.1476   0.02886   0.02294  -0.1171  0.0574  1.0000  -4.3154   0.0000   0.3351
  13.000   1.1648   0.03475   0.02899  -0.1155  0.0479  1.0000  -4.7087   0.0000   0.3306
  14.000   1.1776   0.04192   0.03634  -0.1149  0.0414  1.0000  -5.0832   0.0000   0.3272
  15.000   1.1832   0.05081   0.04542  -0.1152  0.0359  1.0000  -5.4208   0.0000   0.3252
  16.000   1.1889   0.06076   0.05566  -0.1169  0.0319  1.0000  -5.7524   0.0000   0.3244
  17.000   1.1832   0.07334   0.06848  -0.1197  0.0284  1.0000  -6.0192   0.0000   0.3252
  18.000   1.1760   0.08725   0.08271  -0.1238  0.0263  1.0000  -6.2855   0.0000   0.3273
  19.000   1.1676   0.10204   0.09783  -0.1292  0.0242  1.0000  -6.5217   0.0000   0.3305
  20.000   1.1529   0.11821   0.11427  -0.1356  0.0223  1.0000  -6.6787   0.0000   0.3352


