xflr5 v6.49

 Calculated polar for: Aerofoil15

 1 1 Reynolds number fixed          Mach number fixed         

 xtrf =   1.000 (top)        1.000 (bottom)
 Mach =   0.000     Re =     0.500 e 6     Ncrit =   5.000

  alpha     CL        CD       CDp       Cm    Top Xtr Bot Xtr   Cpmin    Chinge    XCp    
 ------- -------- --------- --------- -------- ------- ------- -------- --------- ---------
 -20.000  -0.3692   0.17136   0.16893   0.0122  1.0000  0.0080  -1.9600   0.0000   0.2459
 -19.000  -0.3488   0.16050   0.15809   0.0058  1.0000  0.0088  -2.0116   0.0000   0.2310
 -18.000  -0.3321   0.14858   0.14619  -0.0002  1.0000  0.0094  -2.1250   0.0000   0.2154
 -17.000  -0.3199   0.13604   0.13368  -0.0054  1.0000  0.0091  -2.2736   0.0000   0.2009
 -16.000  -0.3273   0.11834   0.11603  -0.0099  1.0000  0.0101  -3.1516   0.0000   0.1910
 -15.000  -0.5622   0.05107   0.04824  -0.0264  0.9948  0.0105  -8.0600   0.0000   0.1884
 -14.000  -0.5870   0.02950   0.02593  -0.0459  0.9520  0.0108  -8.3727   0.0000   0.1604
 -13.000  -0.5956   0.02243   0.01822  -0.0439  0.8931  0.0114  -8.0077   0.0000   0.1667
 -12.000  -0.5853   0.01962   0.01491  -0.0352  0.8603  0.0124  -7.3652   0.0000   0.1813
 -11.000  -0.5271   0.01721   0.01207  -0.0362  0.8399  0.0145  -6.4052   0.0000   0.1732
 -10.000  -0.4579   0.01466   0.00911  -0.0392  0.8218  0.0167  -5.4576   0.0000   0.1563
  -9.000  -0.3754   0.01301   0.00712  -0.0446  0.8052  0.0202  -4.4527   0.0000   0.1223
  -8.000  -0.2868   0.01159   0.00551  -0.0515  0.7895  0.0264  -3.6131   0.0000   0.0605
  -7.000  -0.1945   0.01052   0.00423  -0.0590  0.7742  0.0364  -2.8226   0.0000  -0.0664
  -6.000  -0.0996   0.00961   0.00328  -0.0672  0.7590  0.0601  -2.0736   0.0000  -0.4470
  -5.000  -0.0035   0.00882   0.00259  -0.0758  0.7441  0.1190  -1.4833   0.0000  -21.8613
  -4.000   0.0928   0.00801   0.00208  -0.0845  0.7278  0.2484  -0.9856   0.0000   1.1786
  -3.000   0.1902   0.00739   0.00185  -0.0936  0.7131  0.4066  -0.6083   0.0000   0.7487
  -2.000   0.2879   0.00708   0.00177  -0.1024  0.6965  0.5350  -0.6683   0.0000   0.6087
  -1.000   0.3859   0.00692   0.00186  -0.1113  0.6802  0.6332  -0.7313   0.0000   0.5393
   0.000   0.4831   0.00691   0.00201  -0.1200  0.6632  0.7151  -0.7977   0.0000   0.4976
   1.000   0.5781   0.00695   0.00224  -0.1280  0.6441  0.7919  -0.8675   0.0000   0.4694
   2.000   0.6685   0.00699   0.00257  -0.1346  0.6244  0.8831  -0.9411   0.0000   0.4483
   3.000   0.7764   0.00719   0.00294  -0.1464  0.6000  1.0000  -1.3003   0.0000   0.4343
   4.000   0.8457   0.00811   0.00344  -0.1481  0.4853  1.0000  -1.7565   0.0000   0.4197
   5.000   0.8655   0.01023   0.00482  -0.1376  0.3095  1.0000  -2.1536   0.0000   0.4024
   7.000   0.8762   0.01647   0.01001  -0.1145  0.0576  1.0000  -2.8932   0.0000   0.3716
   8.000   0.9120   0.01925   0.01276  -0.1114  0.0342  1.0000  -3.4882   0.0000   0.3619
   9.000   0.9499   0.02230   0.01593  -0.1095  0.0248  1.0000  -4.1210   0.0000   0.3537
  10.000   0.9832   0.02599   0.01976  -0.1076  0.0194  1.0000  -4.7567   0.0000   0.3465
  11.000   1.0130   0.03038   0.02432  -0.1061  0.0152  1.0000  -5.4042   0.0000   0.3403
  12.000   1.0413   0.03539   0.02958  -0.1052  0.0133  1.0000  -6.0457   0.0000   0.3351
  13.000   1.0669   0.04119   0.03564  -0.1050  0.0116  1.0000  -6.7584   0.0000   0.3309
  14.000   1.0789   0.04905   0.04377  -0.1044  0.0102  1.0000  -7.4056   0.0000   0.3275
  15.000   1.0935   0.05746   0.05255  -0.1053  0.0095  1.0000  -8.0786   0.0000   0.3253
  16.000   1.1018   0.06758   0.06308  -0.1072  0.0086  1.0000  -8.6975   0.0000   0.3244
  17.000   1.1015   0.07994   0.07585  -0.1104  0.0078  1.0000  -9.2303   0.0000   0.3253
  18.000   1.0890   0.09540   0.09175  -0.1150  0.0072  1.0000  -9.5824   0.0000   0.3286
  19.000   1.0607   0.11492   0.11175  -0.1218  0.0069  1.0000  -9.6207   0.0000   0.3355
  20.000   1.0142   0.13938   0.13672  -0.1311  0.0068  1.0000  -9.1623   0.0000   0.3477


