xflr5 v6.49

 Calculated polar for: Aerofoil61

 1 1 Reynolds number fixed          Mach number fixed         

 xtrf =   1.000 (top)        1.000 (bottom)
 Mach =   0.000     Re =     0.500 e 6     Ncrit =   5.000

  alpha     CL        CD       CDp       Cm    Top Xtr Bot Xtr   Cpmin    Chinge    XCp    
 ------- -------- --------- --------- -------- ------- ------- -------- --------- ---------
 -20.000  -0.7013   0.07429   0.07067  -0.0149  0.9973  0.0241  -6.4490   0.0000   0.2075
 -19.000  -0.7179   0.05750   0.05356  -0.0250  0.9923  0.0256  -6.4460   0.0000   0.1969
 -18.000  -0.7142   0.04435   0.04009  -0.0351  0.9831  0.0275  -6.2487   0.0000   0.1849
 -17.000  -0.6878   0.03456   0.02995  -0.0454  0.9726  0.0294  -5.8831   0.0000   0.1695
 -16.000  -0.6850   0.02628   0.02140  -0.0472  0.9542  0.0319  -5.5927   0.0000   0.1685
 -15.000  -0.6242   0.02082   0.01568  -0.0572  0.9446  0.0359  -5.0125   0.0000   0.1460
 -14.000  -0.5712   0.01717   0.01177  -0.0616  0.9253  0.0406  -4.4875   0.0000   0.1300
 -13.000  -0.5103   0.01497   0.00936  -0.0641  0.9052  0.0471  -3.9672   0.0000   0.1118
 -12.000  -0.4606   0.01349   0.00770  -0.0618  0.8829  0.0558  -3.4991   0.0000   0.1032
 -11.000  -0.3911   0.01235   0.00641  -0.0635  0.8628  0.0686  -2.9854   0.0000   0.0737
 -10.000  -0.3175   0.01134   0.00537  -0.0660  0.8436  0.0872  -2.5246   0.0000   0.0260
  -9.000  -0.2338   0.01046   0.00446  -0.0710  0.8261  0.1162  -2.0769   0.0000  -0.0739
  -8.000  -0.1460   0.00970   0.00372  -0.0768  0.8077  0.1571  -1.6788   0.0000  -0.3067
  -7.000  -0.0581   0.00904   0.00318  -0.0828  0.7896  0.2116  -1.3320   0.0000  -1.2438
  -6.000   0.0340   0.00851   0.00275  -0.0898  0.7713  0.2756  -1.0346   0.0000   3.0020
  -5.000   0.1269   0.00812   0.00246  -0.0970  0.7509  0.3416  -0.7891   0.0000   1.0398
  -4.000   0.2187   0.00787   0.00233  -0.1039  0.7302  0.4056  -0.6579   0.0000   0.7374
  -3.000   0.3109   0.00774   0.00229  -0.1109  0.7085  0.4650  -0.7206   0.0000   0.6133
  -2.000   0.4014   0.00769   0.00234  -0.1175  0.6848  0.5212  -0.7892   0.0000   0.5458
  -1.000   0.4885   0.00773   0.00247  -0.1232  0.6582  0.5736  -0.8642   0.0000   0.5029
   0.000   0.5698   0.00787   0.00268  -0.1275  0.6280  0.6237  -0.9489   0.0000   0.4722
   1.000   0.6355   0.00805   0.00294  -0.1275  0.5921  0.6753  -1.0481   0.0000   0.4474
   2.000   0.6930   0.00843   0.00340  -0.1256  0.5488  0.7297  -1.1913   0.0000   0.4262
   3.000   0.7361   0.00909   0.00411  -0.1202  0.4934  0.7980  -1.3703   0.0000   0.4066
   4.000   0.7930   0.01016   0.00529  -0.1193  0.4201  0.9875  -1.6160   0.0000   0.3922
   5.000   0.8239   0.01198   0.00678  -0.1129  0.3397  1.0000  -1.8538   0.0000   0.3771
   6.000   0.8488   0.01435   0.00884  -0.1060  0.2579  1.0000  -2.1031   0.0000   0.3632
   7.000   0.8758   0.01714   0.01133  -0.1006  0.1857  1.0000  -2.3930   0.0000   0.3516
   8.000   0.9056   0.02025   0.01425  -0.0968  0.1324  1.0000  -2.7006   0.0000   0.3419
   9.000   0.9371   0.02367   0.01757  -0.0943  0.0981  1.0000  -3.0567   0.0000   0.3338
  11.000   1.0006   0.03167   0.02562  -0.0918  0.0599  1.0000  -3.8105   0.0000   0.3214
  12.000   1.0272   0.03667   0.03071  -0.0912  0.0489  1.0000  -4.2178   0.0000   0.3165
  13.000   1.0485   0.04248   0.03667  -0.0907  0.0415  1.0000  -4.6222   0.0000   0.3122
  14.000   1.0657   0.04914   0.04350  -0.0906  0.0361  1.0000  -5.0138   0.0000   0.3087
  15.000   1.0760   0.05695   0.05155  -0.0907  0.0323  1.0000  -5.3721   0.0000   0.3060
  16.000   1.0805   0.06602   0.06083  -0.0915  0.0286  1.0000  -5.7012   0.0000   0.3042
  17.000   1.0756   0.07696   0.07203  -0.0928  0.0260  1.0000  -5.9619   0.0000   0.3036
  18.000   1.0722   0.08844   0.08383  -0.0956  0.0242  1.0000  -6.2355   0.0000   0.3041
  19.000   1.0615   0.10149   0.09716  -0.0993  0.0224  1.0000  -6.4626   0.0000   0.3061
  20.000   1.0431   0.11601   0.11193  -0.1038  0.0207  1.0000  -6.5970   0.0000   0.3097


