xflr5 v6.49

 Calculated polar for: Aerofoil39

 1 1 Reynolds number fixed          Mach number fixed         

 xtrf =   1.000 (top)        1.000 (bottom)
 Mach =   0.000     Re =     0.500 e 6     Ncrit =   5.000

  alpha     CL        CD       CDp       Cm    Top Xtr Bot Xtr   Cpmin    Chinge    XCp    
 ------- -------- --------- --------- -------- ------- ------- -------- --------- ---------
 -20.000  -0.7515   0.08376   0.08012   0.0047  1.0000  0.0272  -6.3452   0.0000   0.2292
 -19.000  -0.7968   0.06684   0.06287   0.0018  1.0000  0.0280  -6.4800   0.0000   0.2286
 -18.000  -0.8332   0.05282   0.04850   0.0007  1.0000  0.0287  -6.4807   0.0000   0.2301
 -17.000  -0.8742   0.04040   0.03577   0.0026  1.0000  0.0301  -6.4503   0.0000   0.2351
 -16.000  -0.8624   0.03138   0.02648  -0.0019  0.9963  0.0324  -6.1090   0.0000   0.2316
 -15.000  -0.8157   0.02562   0.02044  -0.0087  0.9862  0.0353  -5.6286   0.0000   0.2243
 -14.000  -0.7615   0.02149   0.01608  -0.0139  0.9704  0.0391  -5.1217   0.0000   0.2176
 -13.000  -0.7083   0.01852   0.01295  -0.0157  0.9513  0.0442  -4.6164   0.0000   0.2143
 -12.000  -0.6418   0.01623   0.01049  -0.0191  0.9317  0.0500  -4.0811   0.0000   0.2069
 -11.000  -0.5344   0.01422   0.00836  -0.0322  0.9171  0.0603  -3.4471   0.0000   0.1758
 -10.000  -0.4366   0.01265   0.00669  -0.0421  0.8897  0.0735  -2.9225   0.0000   0.1385
  -9.000  -0.3658   0.01162   0.00554  -0.0440  0.8534  0.0906  -2.4915   0.0000   0.1137
  -8.000  -0.3057   0.01088   0.00467  -0.0427  0.8170  0.1107  -2.1300   0.0000   0.0936
  -7.000  -0.2441   0.01032   0.00404  -0.0416  0.7836  0.1397  -1.7970   0.0000   0.0615
  -6.000  -0.1746   0.00975   0.00347  -0.0425  0.7523  0.1811  -1.4878   0.0000  -0.0151
  -5.000  -0.1011   0.00927   0.00304  -0.0444  0.7223  0.2355  -1.2082   0.0000  -0.2202
  -3.000   0.0485   0.00843   0.00248  -0.0489  0.6638  0.3870  -0.7636   0.0000   1.2965
  -2.000   0.1225   0.00811   0.00236  -0.0509  0.6346  0.4792  -0.6735   0.0000   0.6747
  -1.000   0.1947   0.00787   0.00233  -0.0524  0.6050  0.5761  -0.7432   0.0000   0.5207
   0.000   0.2638   0.00772   0.00240  -0.0529  0.5749  0.6731  -0.8175   0.0000   0.4487
   1.000   0.3257   0.00767   0.00256  -0.0514  0.5443  0.7668  -0.8961   0.0000   0.4036
   2.000   0.3963   0.00790   0.00294  -0.0524  0.5122  0.8562  -0.9906   0.0000   0.3763
   3.000   0.5230   0.00865   0.00370  -0.0692  0.4749  0.9088  -1.1464   0.0000   0.3754
   5.000   0.7090   0.01057   0.00544  -0.0853  0.3894  0.9651  -1.5176   0.0000   0.3611
   6.000   0.8020   0.01177   0.00646  -0.0945  0.3373  0.9881  -1.7881   0.0000   0.3573
   7.000   0.8883   0.01333   0.00786  -0.1024  0.2797  0.9991  -2.1066   0.0000   0.3536
   8.000   0.9128   0.01518   0.00956  -0.0949  0.2338  1.0000  -2.3492   0.0000   0.3408
   9.000   0.9366   0.01756   0.01184  -0.0882  0.1910  1.0000  -2.6074   0.0000   0.3295
  10.000   0.9631   0.02066   0.01485  -0.0836  0.1519  1.0000  -2.9022   0.0000   0.3206
  11.000   0.9871   0.02455   0.01869  -0.0799  0.1195  1.0000  -3.1951   0.0000   0.3132
  12.000   1.0098   0.02914   0.02331  -0.0773  0.0969  1.0000  -3.5188   0.0000   0.3072
  13.000   1.0284   0.03463   0.02885  -0.0754  0.0782  1.0000  -3.8370   0.0000   0.3022
  14.000   1.0440   0.04098   0.03532  -0.0743  0.0659  1.0000  -4.1463   0.0000   0.2982
  15.000   1.0552   0.04829   0.04277  -0.0738  0.0563  1.0000  -4.4486   0.0000   0.2951
  16.000   1.0607   0.05677   0.05146  -0.0738  0.0488  1.0000  -4.7522   0.0000   0.2928
  17.000   1.0571   0.06686   0.06173  -0.0742  0.0432  1.0000  -5.0079   0.0000   0.2912
  18.000   1.0545   0.07739   0.07251  -0.0755  0.0391  1.0000  -5.2597   0.0000   0.2905
  19.000   1.0377   0.09028   0.08563  -0.0771  0.0351  1.0000  -5.4220   0.0000   0.2909
  20.000   1.0308   0.10216   0.09779  -0.0800  0.0323  1.0000  -5.6220   0.0000   0.2919


