xflr5 v6.49

 Calculated polar for: Aerofoil38

 1 1 Reynolds number fixed          Mach number fixed         

 xtrf =   1.000 (top)        1.000 (bottom)
 Mach =   0.000     Re =     0.500 e 6     Ncrit =   5.000

  alpha     CL        CD       CDp       Cm    Top Xtr Bot Xtr   Cpmin    Chinge    XCp    
 ------- -------- --------- --------- -------- ------- ------- -------- --------- ---------
 -20.000  -0.6355   0.08961   0.08620  -0.0178  0.9936  0.0216  -6.4101   0.0000   0.1896
 -19.000  -0.6731   0.06946   0.06571  -0.0273  0.9882  0.0228  -6.6395   0.0000   0.1814
 -18.000  -0.6965   0.05272   0.04862  -0.0362  0.9809  0.0241  -6.6577   0.0000   0.1735
 -16.000  -0.6907   0.03231   0.02757  -0.0460  0.9580  0.0276  -6.1177   0.0000   0.1637
 -15.000  -0.6548   0.02577   0.02069  -0.0521  0.9485  0.0296  -5.6405   0.0000   0.1520
 -14.000  -0.6232   0.02126   0.01597  -0.0531  0.9334  0.0329  -5.1580   0.0000   0.1476
 -13.000  -0.5562   0.01822   0.01265  -0.0593  0.9205  0.0368  -4.5572   0.0000   0.1263
 -12.000  -0.4943   0.01589   0.01018  -0.0627  0.9024  0.0436  -4.0267   0.0000   0.1060
 -11.000  -0.3914   0.01388   0.00797  -0.0755  0.8893  0.0529  -3.3852   0.0000   0.0377
 -10.000  -0.3394   0.01267   0.00663  -0.0735  0.8665  0.0640  -2.9267   0.0000   0.0134
  -9.000  -0.2866   0.01177   0.00562  -0.0710  0.8446  0.0785  -2.5179   0.0000  -0.0189
  -8.000  -0.2350   0.01104   0.00484  -0.0677  0.8237  0.1006  -2.1443   0.0000  -0.0608
  -7.000  -0.1658   0.01034   0.00411  -0.0691  0.8043  0.1345  -1.7606   0.0000  -0.1946
  -6.000  -0.0998   0.00971   0.00357  -0.0694  0.7847  0.1826  -1.4336   0.0000  -0.4846
  -5.000  -0.0291   0.00913   0.00315  -0.0709  0.7659  0.2495  -1.1425   0.0000  -2.2989
  -4.000   0.0464   0.00862   0.00279  -0.0737  0.7468  0.3320  -0.8874   0.0000   1.8934
  -3.000   0.1180   0.00819   0.00255  -0.0753  0.7262  0.4230  -0.6837   0.0000   0.9045
  -2.000   0.1855   0.00786   0.00246  -0.0757  0.7057  0.5135  -0.6927   0.0000   0.6647
  -1.000   0.2470   0.00763   0.00241  -0.0744  0.6847  0.5995  -0.7401   0.0000   0.5529
   0.000   0.3135   0.00754   0.00249  -0.0744  0.6625  0.6834  -0.7947   0.0000   0.4862
   1.000   0.3794   0.00757   0.00271  -0.0743  0.6386  0.7641  -0.8539   0.0000   0.4425
   2.000   0.4456   0.00777   0.00311  -0.0744  0.6129  0.8477  -0.9212   0.0000   0.4119
   3.000   0.5640   0.00839   0.00385  -0.0894  0.5836  0.9117  -1.0368   0.0000   0.4022
   4.000   0.6853   0.00924   0.00468  -0.1056  0.5446  0.9420  -1.2111   0.0000   0.3966
   5.000   0.7588   0.01037   0.00569  -0.1091  0.4917  0.9821  -1.4347   0.0000   0.3850
   6.000   0.8392   0.01215   0.00723  -0.1157  0.4169  0.9989  -1.7333   0.0000   0.3778
   7.000   0.8586   0.01429   0.00910  -0.1068  0.3423  1.0000  -1.9646   0.0000   0.3628
   8.000   0.8737   0.01722   0.01173  -0.0980  0.2618  1.0000  -2.2138   0.0000   0.3492
   9.000   0.8933   0.02076   0.01499  -0.0917  0.1864  1.0000  -2.4845   0.0000   0.3381
  10.000   0.9159   0.02471   0.01873  -0.0872  0.1303  1.0000  -2.7983   0.0000   0.3291
  11.000   0.9437   0.02886   0.02280  -0.0846  0.0934  1.0000  -3.1414   0.0000   0.3219
  12.000   0.9727   0.03330   0.02724  -0.0830  0.0716  1.0000  -3.4976   0.0000   0.3160
  13.000   0.9978   0.03845   0.03245  -0.0818  0.0561  1.0000  -3.8912   0.0000   0.3110
  14.000   1.0209   0.04414   0.03827  -0.0811  0.0462  1.0000  -4.2876   0.0000   0.3067
  15.000   1.0411   0.05051   0.04480  -0.0808  0.0397  1.0000  -4.6780   0.0000   0.3031
  16.000   1.0521   0.05822   0.05269  -0.0805  0.0343  1.0000  -5.0307   0.0000   0.3000
  17.000   1.0624   0.06642   0.06110  -0.0810  0.0300  1.0000  -5.3819   0.0000   0.2978
  18.000   1.0600   0.07659   0.07150  -0.0814  0.0270  1.0000  -5.6875   0.0000   0.2963
  19.000   1.0591   0.08701   0.08224  -0.0829  0.0250  1.0000  -6.0084   0.0000   0.2956
  20.000   1.0505   0.09882   0.09430  -0.0850  0.0229  1.0000  -6.2680   0.0000   0.2959


