xflr5 v6.49

 Calculated polar for: Aerofoil25

 1 1 Reynolds number fixed          Mach number fixed         

 xtrf =   1.000 (top)        1.000 (bottom)
 Mach =   0.000     Re =     0.500 e 6     Ncrit =   5.000

  alpha     CL        CD       CDp       Cm    Top Xtr Bot Xtr   Cpmin    Chinge    XCp    
 ------- -------- --------- --------- -------- ------- ------- -------- --------- ---------
 -20.000  -0.4137   0.18057   0.17811   0.0143  0.9969  0.0093  -2.1622   0.0000   0.2457
 -19.000  -0.3883   0.16705   0.16458   0.0045  0.9943  0.0092  -2.2826   0.0000   0.2238
 -18.000  -0.3754   0.14952   0.14705  -0.0051  0.9911  0.0104  -2.9411   0.0000   0.2009
 -17.000  -0.3477   0.13720   0.13471  -0.0152  0.9866  0.0114  -2.8792   0.0000   0.1715
 -16.000  -0.5963   0.06665   0.06358  -0.0270  0.9820  0.0133  -7.5231   0.0000   0.1838
 -15.000  -0.6343   0.04590   0.04233  -0.0392  0.9760  0.0138  -7.8445   0.0000   0.1707
 -14.000  -0.6535   0.03339   0.02938  -0.0438  0.9658  0.0145  -7.7084   0.0000   0.1683
 -13.000  -0.6418   0.02545   0.02098  -0.0480  0.9526  0.0152  -7.2227   0.0000   0.1623
 -12.000  -0.6300   0.02020   0.01532  -0.0453  0.9401  0.0169  -6.6885   0.0000   0.1667
 -11.000  -0.5768   0.01751   0.01234  -0.0456  0.9262  0.0192  -5.8372   0.0000   0.1602
 -10.000  -0.4885   0.01506   0.00956  -0.0540  0.9204  0.0228  -4.9431   0.0000   0.1286
  -9.000  -0.4151   0.01362   0.00794  -0.0574  0.9085  0.0282  -4.1645   0.0000   0.1010
  -8.000  -0.3242   0.01209   0.00625  -0.0651  0.8982  0.0369  -3.3677   0.0000   0.0375
  -7.000  -0.2103   0.01076   0.00485  -0.0790  0.8927  0.0565  -2.5535   0.0000  -0.1408
  -6.000  -0.1307   0.00986   0.00400  -0.0831  0.8787  0.0901  -1.9976   0.0000  -0.4066
  -5.000  -0.0245   0.00889   0.00318  -0.0946  0.8681  0.1581  -1.4341   0.0000  -3.7015
  -4.000   0.0765   0.00814   0.00266  -0.1047  0.8560  0.2556  -0.9987   0.0000   1.6413
  -3.000   0.1726   0.00759   0.00232  -0.1131  0.8404  0.3525  -0.6731   0.0000   0.9132
  -2.000   0.2672   0.00728   0.00219  -0.1210  0.8239  0.4372  -0.5686   0.0000   0.7062
  -1.000   0.3754   0.00703   0.00206  -0.1327  0.8065  0.5152  -0.6269   0.0000   0.6042
   0.000   0.4604   0.00695   0.00215  -0.1377  0.7840  0.5808  -0.6781   0.0000   0.5485
   1.000   0.5472   0.00693   0.00229  -0.1433  0.7585  0.6448  -0.7377   0.0000   0.5100
   2.000   0.6282   0.00697   0.00249  -0.1471  0.7260  0.7103  -0.8586   0.0000   0.4812
   3.000   0.6829   0.00721   0.00277  -0.1435  0.6554  0.7865  -1.1066   0.0000   0.4562
   4.000   0.7302   0.00799   0.00349  -0.1382  0.5397  1.0000  -1.4132   0.0000   0.4344
   5.000   0.7447   0.00988   0.00472  -0.1256  0.3799  1.0000  -1.6969   0.0000   0.4127
   6.000   0.7646   0.01244   0.00648  -0.1157  0.1978  1.0000  -2.0230   0.0000   0.3944
   7.000   0.8041   0.01468   0.00829  -0.1113  0.0973  1.0000  -2.4652   0.0000   0.3805
   8.000   0.8519   0.01670   0.01015  -0.1091  0.0560  1.0000  -2.9860   0.0000   0.3692
   9.000   0.9001   0.01882   0.01231  -0.1075  0.0389  1.0000  -3.5380   0.0000   0.3595
  10.000   0.9442   0.02133   0.01486  -0.1056  0.0284  1.0000  -4.1645   0.0000   0.3507
  11.000   0.9860   0.02416   0.01786  -0.1037  0.0232  1.0000  -4.8348   0.0000   0.3429
  12.000   1.0202   0.02774   0.02163  -0.1013  0.0197  1.0000  -5.4845   0.0000   0.3357
  13.000   1.0528   0.03175   0.02584  -0.0994  0.0165  1.0000  -6.1609   0.0000   0.3296
  14.000   1.0725   0.03719   0.03154  -0.0966  0.0146  1.0000  -6.7558   0.0000   0.3238
  15.000   1.0907   0.04335   0.03803  -0.0949  0.0132  1.0000  -7.3496   0.0000   0.3192
  16.000   1.1005   0.05104   0.04606  -0.0937  0.0121  1.0000  -7.8876   0.0000   0.3157
  17.000   1.0984   0.06108   0.05644  -0.0934  0.0112  1.0000  -8.3550   0.0000   0.3138
  18.000   1.0766   0.07518   0.07096  -0.0943  0.0104  1.0000  -8.6252   0.0000   0.3144
  19.000   1.0488   0.09205   0.08830  -0.0981  0.0100  1.0000  -8.7544   0.0000   0.3181
  20.000   1.0123   0.11198   0.10873  -0.1045  0.0098  1.0000  -8.6645   0.0000   0.3255


