xflr5 v6.49

 Calculated polar for: Aerofoil28

 1 1 Reynolds number fixed          Mach number fixed         

 xtrf =   1.000 (top)        1.000 (bottom)
 Mach =   0.000     Re =     0.500 e 6     Ncrit =   5.000

  alpha     CL        CD       CDp       Cm    Top Xtr Bot Xtr   Cpmin    Chinge    XCp    
 ------- -------- --------- --------- -------- ------- ------- -------- --------- ---------
 -20.000  -0.3710   0.16630   0.16393   0.0062  1.0000  0.0094  -2.1606   0.0000   0.2244
 -19.000  -0.3519   0.15346   0.15110  -0.0017  0.9989  0.0092  -2.2834   0.0000   0.2048
 -18.000  -0.3392   0.13369   0.13133  -0.0133  0.9961  0.0102  -3.0432   0.0000   0.1731
 -17.000  -0.6116   0.05886   0.05589  -0.0276  0.9923  0.0109  -8.3323   0.0000   0.1869
 -16.000  -0.6547   0.03752   0.03390  -0.0399  0.9789  0.0111  -8.6599   0.0000   0.1751
 -15.000  -0.6611   0.02852   0.02441  -0.0405  0.9582  0.0117  -8.2956   0.0000   0.1770
 -14.000  -0.6144   0.02309   0.01851  -0.0460  0.9462  0.0129  -7.4784   0.0000   0.1643
 -13.000  -0.5508   0.01964   0.01460  -0.0512  0.9294  0.0149  -6.5438   0.0000   0.1465
 -12.000  -0.4819   0.01639   0.01095  -0.0563  0.9115  0.0170  -5.6394   0.0000   0.1225
 -11.000  -0.4240   0.01456   0.00879  -0.0562  0.8880  0.0198  -4.7970   0.0000   0.1065
 -10.000  -0.3746   0.01312   0.00709  -0.0531  0.8662  0.0231  -4.1281   0.0000   0.0974
  -9.000  -0.3195   0.01219   0.00596  -0.0508  0.8472  0.0287  -3.4706   0.0000   0.0796
  -8.000  -0.2571   0.01125   0.00484  -0.0504  0.8294  0.0376  -2.8323   0.0000   0.0416
  -7.000  -0.1864   0.01045   0.00399  -0.0520  0.8125  0.0561  -2.1973   0.0000  -0.0444
  -6.000  -0.1120   0.00971   0.00331  -0.0547  0.7971  0.0963  -1.6744   0.0000  -0.2605
  -5.000  -0.0363   0.00892   0.00273  -0.0578  0.7801  0.1901  -1.2029   0.0000  -1.4021
  -4.000   0.0320   0.00798   0.00235  -0.0589  0.7638  0.3743  -0.8427   0.0000   2.1508
  -3.000   0.0954   0.00708   0.00209  -0.0585  0.7475  0.6049  -0.5701   0.0000   0.8775
  -2.000   0.1697   0.00664   0.00214  -0.0605  0.7303  0.7762  -0.6058   0.0000   0.6120
  -1.000   0.2733   0.00672   0.00236  -0.0708  0.7141  0.8627  -0.6676   0.0000   0.5105
   0.000   0.3927   0.00705   0.00264  -0.0857  0.6956  0.8996  -0.7425   0.0000   0.4677
   1.000   0.5071   0.00744   0.00308  -0.0995  0.6759  0.9199  -0.8202   0.0000   0.4441
   2.000   0.6049   0.00784   0.00351  -0.1087  0.6534  0.9357  -0.8975   0.0000   0.4263
   3.000   0.7032   0.00837   0.00404  -0.1181  0.6165  0.9490  -1.2615   0.0000   0.4134
   4.000   0.7397   0.00937   0.00471  -0.1108  0.5089  0.9727  -1.6008   0.0000   0.3938
   5.000   0.7782   0.01174   0.00641  -0.1065  0.3334  0.9941  -1.9928   0.0000   0.3796
   6.000   0.7883   0.01533   0.00917  -0.0966  0.1417  1.0000  -2.3534   0.0000   0.3639
   7.000   0.8007   0.01793   0.01150  -0.0868  0.0699  1.0000  -2.7383   0.0000   0.3484
   8.000   0.8309   0.02050   0.01401  -0.0819  0.0434  1.0000  -3.2148   0.0000   0.3372
   9.000   0.8672   0.02331   0.01690  -0.0793  0.0300  1.0000  -3.8122   0.0000   0.3286
  10.000   0.9031   0.02658   0.02029  -0.0774  0.0235  1.0000  -4.4359   0.0000   0.3214
  11.000   0.9347   0.03054   0.02444  -0.0757  0.0193  1.0000  -5.0594   0.0000   0.3151
  12.000   0.9649   0.03495   0.02901  -0.0745  0.0157  1.0000  -5.7072   0.0000   0.3098
  13.000   0.9872   0.04047   0.03481  -0.0731  0.0139  1.0000  -6.3030   0.0000   0.3049
  14.000   1.0068   0.04668   0.04130  -0.0724  0.0123  1.0000  -6.8950   0.0000   0.3009
  15.000   1.0202   0.05404   0.04895  -0.0720  0.0111  1.0000  -7.5146   0.0000   0.2977
  16.000   1.0143   0.06420   0.05944  -0.0709  0.0100  1.0000  -7.9776   0.0000   0.2950
  17.000   1.0097   0.07516   0.07080  -0.0716  0.0096  1.0000  -8.4400   0.0000   0.2939
  18.000   0.9939   0.08869   0.08477  -0.0734  0.0091  1.0000  -8.7524   0.0000   0.2945
  19.000   0.9660   0.10527   0.10182  -0.0768  0.0086  1.0000  -8.8608   0.0000   0.2977
  20.000   0.9241   0.12592   0.12293  -0.0825  0.0082  1.0000  -8.6461   0.0000   0.3049


