xflr5 v6.49

 Calculated polar for: Aerofoil70

 1 1 Reynolds number fixed          Mach number fixed         

 xtrf =   1.000 (top)        1.000 (bottom)
 Mach =   0.000     Re =     0.500 e 6     Ncrit =   5.000

  alpha     CL        CD       CDp       Cm    Top Xtr Bot Xtr   Cpmin    Chinge    XCp    
 ------- -------- --------- --------- -------- ------- ------- -------- --------- ---------
 -20.000  -0.2199   0.15828   0.15580  -0.0380  0.9837  0.0098  -1.9129   0.0000  -0.0046
 -19.000  -0.1866   0.14435   0.14185  -0.0503  0.9756  0.0097  -2.1051   0.0000  -0.1089
 -18.000  -0.1747   0.13093   0.12844  -0.0562  0.9631  0.0109  -2.4701   0.0000  -0.1600
 -17.000  -0.1435   0.11957   0.11706  -0.0661  0.9535  0.0118  -2.3891   0.0000  -0.3106
 -16.000  -0.3595   0.05786   0.05499  -0.0787  0.9459  0.0145  -6.6531   0.0000  -0.0027
 -15.000  -0.4231   0.03402   0.03047  -0.0922  0.9245  0.0146  -7.3416   0.0000   0.0084
 -14.000  -0.3847   0.02343   0.01917  -0.1092  0.9053  0.0153  -6.8430   0.0000  -0.0566
 -13.000  -0.3830   0.01863   0.01384  -0.1040  0.8747  0.0165  -6.4066   0.0000  -0.0415
 -12.000  -0.3642   0.01664   0.01150  -0.0956  0.8498  0.0180  -5.8243   0.0000  -0.0311
 -11.000  -0.3081   0.01489   0.00936  -0.0952  0.8311  0.0203  -5.1183   0.0000  -0.0788
 -10.000  -0.2426   0.01331   0.00753  -0.0966  0.8135  0.0239  -4.3919   0.0000  -0.1711
  -9.000  -0.1641   0.01220   0.00615  -0.1008  0.7980  0.0286  -3.6346   0.0000  -0.3952
  -8.000  -0.0819   0.01114   0.00491  -0.1059  0.7822  0.0365  -2.9146   0.0000  -1.0997
  -7.000   0.0029   0.01031   0.00400  -0.1116  0.7670  0.0511  -2.2827   0.0000  39.8836
  -6.000   0.0921   0.00967   0.00328  -0.1183  0.7518  0.0791  -1.7222   0.0000   1.5751
  -5.000   0.1790   0.00906   0.00281  -0.1246  0.7371  0.1365  -1.2398   0.0000   0.9642
  -4.000   0.2682   0.00851   0.00244  -0.1315  0.7213  0.2447  -0.8403   0.0000   0.7504
  -3.000   0.3534   0.00803   0.00232  -0.1374  0.7068  0.3847  -0.8226   0.0000   0.6446
  -2.000   0.4403   0.00777   0.00231  -0.1436  0.6913  0.5212  -0.8806   0.0000   0.5791
  -1.000   0.5221   0.00763   0.00244  -0.1483  0.6747  0.6373  -0.9377   0.0000   0.5350
   0.000   0.6005   0.00760   0.00266  -0.1520  0.6594  0.7450  -0.9955   0.0000   0.5023
   1.000   0.6662   0.00757   0.00291  -0.1521  0.6418  0.8764  -1.0492   0.0000   0.4758
   2.000   0.8050   0.00807   0.00354  -0.1731  0.6252  0.9993  -1.1524   0.0000   0.4612
   3.000   0.8651   0.00846   0.00391  -0.1723  0.6069  1.0000  -1.2108   0.0000   0.4439
   4.000   0.9214   0.00899   0.00443  -0.1707  0.5861  1.0000  -1.2920   0.0000   0.4286
   5.000   0.9710   0.00971   0.00520  -0.1675  0.5593  1.0000  -1.6312   0.0000   0.4145
   6.000   0.9830   0.01132   0.00664  -0.1555  0.4874  1.0000  -1.9247   0.0000   0.3987
   7.000   0.9874   0.01430   0.00933  -0.1436  0.3939  1.0000  -2.2427   0.0000   0.3844
   8.000   0.9716   0.01984   0.01427  -0.1302  0.2525  1.0000  -2.5050   0.0000   0.3713
   9.000   0.9583   0.02658   0.02037  -0.1198  0.1106  1.0000  -2.7721   0.0000   0.3606
  10.000   0.9776   0.03182   0.02547  -0.1163  0.0587  1.0000  -3.1846   0.0000   0.3529
  11.000   1.0037   0.03689   0.03055  -0.1146  0.0372  1.0000  -3.6886   0.0000   0.3465
  12.000   1.0291   0.04227   0.03605  -0.1134  0.0276  1.0000  -4.2089   0.0000   0.3408
  13.000   1.0528   0.04803   0.04198  -0.1125  0.0223  1.0000  -4.7382   0.0000   0.3358
  14.000   1.0714   0.05445   0.04863  -0.1116  0.0184  1.0000  -5.2553   0.0000   0.3312
  15.000   1.0832   0.06174   0.05610  -0.1104  0.0156  1.0000  -5.7441   0.0000   0.3271
  16.000   1.0882   0.06990   0.06452  -0.1089  0.0140  1.0000  -6.2095   0.0000   0.3234
  17.000   1.0914   0.07831   0.07323  -0.1079  0.0126  1.0000  -6.7204   0.0000   0.3202
  18.000   1.0903   0.08749   0.08268  -0.1074  0.0114  1.0000  -7.2019   0.0000   0.3178
  19.000   1.0816   0.09847   0.09393  -0.1079  0.0104  1.0000  -7.5950   0.0000   0.3169
  20.000   1.0718   0.11036   0.10616  -0.1101  0.0097  1.0000  -7.9356   0.0000   0.3175


