xflr5 v6.49

 Calculated polar for: Aerofoil97

 1 1 Reynolds number fixed          Mach number fixed         

 xtrf =   1.000 (top)        1.000 (bottom)
 Mach =   0.000     Re =     0.500 e 6     Ncrit =   5.000

  alpha     CL        CD       CDp       Cm    Top Xtr Bot Xtr   Cpmin    Chinge    XCp    
 ------- -------- --------- --------- -------- ------- ------- -------- --------- ---------
 -20.000  -0.4139   0.15793   0.15549   0.0179  1.0000  0.0094  -2.3638   0.0000   0.2607
 -19.000  -0.4093   0.14269   0.14028   0.0120  1.0000  0.0096  -2.7767   0.0000   0.2499
 -18.000  -0.6798   0.06658   0.06365  -0.0019  1.0000  0.0106  -8.2612   0.0000   0.2340
 -17.000  -0.7557   0.04425   0.04075  -0.0066  1.0000  0.0106  -8.8541   0.0000   0.2319
 -16.000  -0.8115   0.03269   0.02868   0.0004  1.0000  0.0109  -8.9357   0.0000   0.2436
 -15.000  -0.7942   0.02592   0.02142   0.0003  0.9938  0.0118  -8.3342   0.0000   0.2446
 -14.000  -0.7372   0.02190   0.01700  -0.0035  0.9774  0.0132  -7.4086   0.0000   0.2399
 -13.000  -0.6796   0.01910   0.01383  -0.0046  0.9566  0.0151  -6.4930   0.0000   0.2382
 -12.000  -0.5918   0.01604   0.01046  -0.0129  0.9448  0.0178  -5.4679   0.0000   0.2231
 -11.000  -0.5042   0.01406   0.00820  -0.0199  0.9239  0.0213  -4.4820   0.0000   0.2052
 -10.000  -0.4231   0.01244   0.00638  -0.0247  0.8981  0.0275  -3.6937   0.0000   0.1857
  -9.000  -0.3567   0.01137   0.00513  -0.0250  0.8696  0.0358  -3.0274   0.0000   0.1734
  -8.000  -0.2861   0.01050   0.00415  -0.0262  0.8434  0.0522  -2.3854   0.0000   0.1506
  -7.000  -0.2118   0.00973   0.00336  -0.0285  0.8189  0.0865  -1.8190   0.0000   0.1059
  -6.000  -0.1373   0.00890   0.00274  -0.0309  0.7950  0.1708  -1.3359   0.0000   0.0112
  -5.000  -0.0677   0.00788   0.00221  -0.0322  0.7711  0.3524  -0.9523   0.0000  -0.2506
  -4.000  -0.0067   0.00685   0.00189  -0.0308  0.7467  0.5946  -0.6576   0.0000  -4.5318
  -3.000   0.0692   0.00640   0.00185  -0.0330  0.7221  0.7620  -0.4986   0.0000   0.7439
  -2.000   0.1679   0.00644   0.00202  -0.0415  0.6975  0.8475  -0.5634   0.0000   0.5024
  -1.000   0.2727   0.00670   0.00227  -0.0521  0.6711  0.8881  -0.6379   0.0000   0.4423
   0.000   0.3915   0.00708   0.00258  -0.0669  0.6415  0.9064  -0.7301   0.0000   0.4200
   1.000   0.4729   0.00745   0.00294  -0.0711  0.6084  0.9295  -0.8239   0.0000   0.3981
   2.000   0.5845   0.00806   0.00347  -0.0843  0.5489  0.9377  -1.1755   0.0000   0.3905
   3.000   0.6569   0.00927   0.00428  -0.0870  0.4307  0.9549  -1.5845   0.0000   0.3771
   4.000   0.7020   0.01107   0.00548  -0.0832  0.2676  0.9747  -1.9865   0.0000   0.3619
   5.000   0.7583   0.01355   0.00728  -0.0841  0.1064  0.9921  -2.5138   0.0000   0.3529
   6.000   0.8260   0.01564   0.00918  -0.0881  0.0508  0.9997  -3.1254   0.0000   0.3473
   7.000   0.8494   0.01754   0.01111  -0.0806  0.0353  1.0000  -3.6149   0.0000   0.3339
   8.000   0.8764   0.01985   0.01352  -0.0748  0.0266  1.0000  -4.2039   0.0000   0.3229
   9.000   0.9068   0.02278   0.01659  -0.0711  0.0214  1.0000  -4.8340   0.0000   0.3144
  10.000   0.9351   0.02644   0.02049  -0.0684  0.0182  1.0000  -5.4685   0.0000   0.3074
  11.000   0.9594   0.03097   0.02519  -0.0663  0.0150  1.0000  -6.1055   0.0000   0.3016
  12.000   0.9786   0.03647   0.03099  -0.0647  0.0135  1.0000  -6.7053   0.0000   0.2967
  13.000   0.9931   0.04309   0.03792  -0.0638  0.0121  1.0000  -7.2782   0.0000   0.2929
  14.000   1.0004   0.05115   0.04629  -0.0637  0.0111  1.0000  -7.8022   0.0000   0.2903
  15.000   0.9926   0.06191   0.05738  -0.0637  0.0102  1.0000  -8.2089   0.0000   0.2887
  16.000   0.9717   0.07558   0.07146  -0.0647  0.0096  1.0000  -8.4736   0.0000   0.2888
  17.000   0.9479   0.09114   0.08746  -0.0677  0.0093  1.0000  -8.6526   0.0000   0.2913
  18.000   0.9092   0.11073   0.10753  -0.0722  0.0091  1.0000  -8.5350   0.0000   0.2970
  19.000   0.8508   0.13639   0.13368  -0.0793  0.0089  1.0000  -7.8947   0.0000   0.3086


